
              Welcome to ANSYS Fluent 2024 R2

              Copyright 1987-2024 ANSYS, Inc. All Rights Reserved.
              Unauthorized use, distribution or duplication is prohibited.
              This product is subject to U.S. laws governing export and re-export.
              For full Legal Notice, see documentation.

Build Time: May 13 2024 11:21:01 EST  Build Id: 10192  
 
Connected License Server List:	<Shared_Web_License_Server>

     --------------------------------------------------------------
     This is a student version of ANSYS FLUENT. Usage of this product
     license is limited to the terms and conditions specified in your ANSYS
     license form, additional terms section.
     --------------------------------------------------------------
Host spawning Node 0 on machine "DESKTOP-4S49BHM" (win64).

---------------------------------------------------------------------------------
ID    Hostname         Core  O.S.         PID    Vendor                          
---------------------------------------------------------------------------------
n3    DESKTOP-4S49BHM  4/4  Windows-x64  7568   Intel(R) Core(TM) i5-6200U      
n2    DESKTOP-4S49BHM  3/4  Windows-x64  12580  Intel(R) Core(TM) i5-6200U      
n1    DESKTOP-4S49BHM  2/4  Windows-x64  12736  Intel(R) Core(TM) i5-6200U      
n0*   DESKTOP-4S49BHM  1/4  Windows-x64  2240   Intel(R) Core(TM) i5-6200U      
host  DESKTOP-4S49BHM       Windows-x64  2448   Intel(R) Core(TM) i5-6200U      

MPI Option Selected: intel
Selected system interconnect: default
---------------------------------------------------------------------------------

Cleanup script file is C:\Users\joyoo\cleanup-fluent-DESKTOP-4S49BHM-2448.bat

> Reading "C:\Users\joyoo\OneDrive\Desktop\OSAS-digital-twinning\ansys\ANSYS proj\trial_1\dynamic_mesh_files\dp0\FFF\MECH\FFF.1.msh"...
Buffering for file scan...

   21690 nodes, binary.
    8978 nodes, binary.
  303312 triangular interior faces, zone  1, binary.
     177 triangular velocity-inlet faces, zone  5, binary.
    1480 triangular wall faces, zone  6, binary.
   16295 triangular wall faces, zone  7, binary.
  156144 tetrahedral cells, zone  2, binary.

Building...
     mesh
	auto partitioning mesh by Metis (fast),
	distributing mesh
		parts....,
		faces....,
		nodes....,
		cells....,
        bandwidth reduction using Reverse Cuthill-McKee: 39041/1685 = 23.1697
     materials,
     interface,
     domains,
     zones,
	walls
	push_wall
	inlet
	fff_fluid_domain
	interior-fff_fluid_domain
     parallel,
Done.

Preparing mesh for display...
Done.

Writing Settings file "C:\Users\joyoo\OneDrive\Desktop\OSAS-digital-twinning\ansys\ANSYS proj\trial_1\dynamic_mesh_files\dp0\FFF\Fluent\FFF.1.set"...
	writing rp variables ... Done.
	writing domain variables ... Done.
	writing fff_fluid_domain (type fluid) (mixture) ... Done.
	writing interior-fff_fluid_domain (type interior) (mixture) ... Done.
	writing inlet (type velocity-inlet) (mixture) ... Done.
	writing push_wall (type wall) (mixture) ... Done.
	writing walls (type wall) (mixture) ... Done.
	writing zones map name-id ... Done.
Pressure-Velocity Coupling scheme is set to SIMPLE

Mesh Quality:

Minimum Orthogonal Quality =  2.14902e-01 cell 26032 on zone 2 (ID: 83320 on partition: 1) at location ( 3.27362e-03,  1.21181e-02,  1.39361e-02)


Maximum Aspect Ratio =  1.66802e+01 cell 26032 on zone 2 (ID: 83320 on partition: 1) at location ( 3.27362e-03,  1.21181e-02,  1.39361e-02)
Copy "C:\Users\joyoo\OneDrive\Desktop\OSAS-digital-twinning\ansys\ANSYS proj\trial_1\dynamic_mesh_files\dp0\FFF\Fluent\push_wall_movement.c" to "libudf\src"

Creating user_nt.udf file for 3ddp_host ...

Copyright 1987-2024 ANSYS, Inc. All Rights Reserved.
Compiler and linker: Clang (builtin)
Compiler path: "C:\PROGRA~1\ANSYSI~1\ANSYSS~1\v242\fluent"\ntbin\clang\bin\clang-cl
Linker   path: "C:\PROGRA~1\ANSYSI~1\ANSYSS~1\v242\fluent"\ntbin\clang\bin\lld-link
C sources: ['push_wall_movement.c']
Creating user_nt.udf file for 3ddp_node ...

Copyright 1987-2024 ANSYS, Inc. All Rights Reserved.
Compiler and linker: Clang (builtin)
Compiler path: "C:\PROGRA~1\ANSYSI~1\ANSYSS~1\v242\fluent"\ntbin\clang\bin\clang-cl
Linker   path: "C:\PROGRA~1\ANSYSI~1\ANSYSS~1\v242\fluent"\ntbin\clang\bin\lld-link
C sources: ['push_wall_movement.c']

Done.

DESKTOP-4S49BHM: Opening library "C:\Users\joyoo\OneDrive\Desktop\OSAS-digital-twinning\ansys\ANSYS proj\trial_1\dynamic_mesh_files\dp0\FFF\Fluent\libudf"...
Done.

DESKTOP-4S49BHM: Opening library "C:\Users\joyoo\OneDrive\Desktop\OSAS-digital-twinning\ansys\ANSYS proj\trial_1\dynamic_mesh_files\dp0\FFF\Fluent\libudf"...
	functionName
Done.
Fast-loading "C:\PROGRA~1\ANSYSI~1\ANSYSS~1\v242\fluent\fluent24.2.0\addons\afd\lib\hdfio.bin"
Done.

Writing to DESKTOP-4S49BHM:"C:\Users\joyoo\OneDrive\Desktop\OSAS-digital-twinning\ansys\ANSYS proj\trial_1\dynamic_mesh_files\dp0\FFF\Fluent\FFF.1-Setup-Output.cas.h5" in NODE0 mode and compression level 1 ...
Grouping cells for Laplace smoothing ...
      156144 cells,     1 zone  ...
      321264 faces,     4 zones ...
       30668 nodes,     1 zone  ...
  Done.
Done.
Registering UdfSource, ("C:/Users/joyoo/OneDrive/Desktop/OSAS-digital-twinning/ansys/ANSYS proj/trial_1/dynamic_mesh_files/dp0/FFF/Fluent/push_wall_movement.c")
Registering Udflib, ("libudf")

Writing Settings file "C:\Users\joyoo\OneDrive\Desktop\OSAS-digital-twinning\ansys\ANSYS proj\trial_1\dynamic_mesh_files\dp0\FFF\Fluent\FFF.1.set"...
	writing rp variables ... Done.
	writing domain variables ... Done.
	writing fff_fluid_domain (type fluid) (mixture) ... Done.
	writing interior-fff_fluid_domain (type interior) (mixture) ... Done.
	writing inlet (type velocity-inlet) (mixture) ... Done.
	writing push_wall (type wall) (mixture) ... Done.
	writing walls (type wall) (mixture) ... Done.
	writing zones map name-id ... Done.

     prism and sizing settings,
Grouping and repartitioning the fluid cell zones to be smoothed...

>> 4 Stored Partitions:
    P   Cells I-Cells Cell Ratio   Faces I-Faces Face Ratio Neighbors Load
    0   38989    1177      0.030   81142    1297      0.016         2    1
    1   39067    1842      0.047   81300    1981      0.024         3    1
    2   39079    1321      0.034   81079    1405      0.017         2    1
    3   39009    1867      0.048   81117    2065      0.025         3    1

   ----------------------------------------------------------------------
   Collective Partition Statistics:        Minimum   Maximum   Total     
   ----------------------------------------------------------------------
   Cell count                              38989     39079     156144    
   Mean cell count deviation               -0.1%     0.1%      
   Partition boundary cell count           1177      1867      6207      
   Partition boundary cell count ratio     3.0%      4.8%      4.0%      

   Face count                              81079     81300     321264    
   Mean face count deviation               -0.1%     0.2%      
   Partition boundary face count           1297      2065      3374      
   Partition boundary face count ratio     1.6%      2.5%      1.1%      

   Partition neighbor count                2         3         
   ----------------------------------------------------------------------
   Partition Method                        Metis                                
   Stored Partition Count                  4                                    
Done.

     156119 groups for partitioning (including overlaps)
     Merging groups across partitions:
      1 0
     Partition 156119 groups out of 156144 cells

Grouping and repartitioning the rest of fluid cell zones (if any)...


Migrating partitions to compute-nodes.
>> 4 Active Partitions:
    P   Cells I-Cells Cell Ratio   Faces I-Faces Face Ratio Neighbors Load  Ext Cells
    0   38989    1177      0.030   81142    1297      0.016         2    1       1204
    1   39067    1842      0.047   81300    1981      0.024         3    1       1828
    2   39079    1321      0.034   81079    1405      0.017         2    1       1308
    3   39009    1867      0.048   81117    2065      0.025         3    1       1912

   ----------------------------------------------------------------------
   Collective Partition Statistics:        Minimum   Maximum   Total     
   ----------------------------------------------------------------------
   Cell count                              38989     39079     156144    
   Mean cell count deviation               -0.1%     0.1%      
   Partition boundary cell count           1177      1867      6207      
   Partition boundary cell count ratio     3.0%      4.8%      4.0%      

   Face count                              81079     81300     321264    
   Mean face count deviation               -0.1%     0.2%      
   Partition boundary face count           1297      2065      3374      
   Partition boundary face count ratio     1.6%      2.5%      1.1%      

   Partition neighbor count                2         3         
   ----------------------------------------------------------------------
   Partition Method                        Metis                                
   Stored Partition Count                  4                                    
Done.

Writing to DESKTOP-4S49BHM:"C:\Users\joyoo\OneDrive\Desktop\OSAS-digital-twinning\ansys\ANSYS proj\trial_1\dynamic_mesh_files\dp0\FFF\Fluent\FFF.1-Setup-Output.cas.h5" in NODE0 mode and compression level 1 ...
Grouping cells for Laplace smoothing ...
      156144 cells,     1 zone  ...
      321264 faces,     4 zones ...
       30668 nodes,     1 zone  ...
  Done.
Done.
Registering UdfSource, ("C:/Users/joyoo/OneDrive/Desktop/OSAS-digital-twinning/ansys/ANSYS proj/trial_1/dynamic_mesh_files/dp0/FFF/Fluent/push_wall_movement.c")
Registering Udflib, ("C:/Users/joyoo/OneDrive/Desktop/OSAS-digital-twinning/ansys/ANSYS proj/trial_1/dynamic_mesh_files/dp0/FFF/Fluent/libudf")

Writing Settings file "C:\Users\joyoo\OneDrive\Desktop\OSAS-digital-twinning\ansys\ANSYS proj\trial_1\dynamic_mesh_files\dp0\FFF\Fluent\FFF.1.set"...
	writing rp variables ... Done.
	writing domain variables ... Done.
	writing fff_fluid_domain (type fluid) (mixture) ... Done.
	writing inlet (type pressure-inlet) (mixture) ... Done.
	writing interior-fff_fluid_domain (type interior) (mixture) ... Done.
	writing push_wall (type wall) (mixture) ... Done.
	writing walls (type wall) (mixture) ... Done.
	writing dynamic zone fff_fluid_domain ... Done
	writing dynamic zone walls ... Done
	writing dynamic zone push_wall ... Done
	writing zones map name-id ... Done.

Writing to DESKTOP-4S49BHM:"C:\Users\joyoo\OneDrive\Desktop\OSAS-digital-twinning\ansys\ANSYS proj\trial_1\dynamic_mesh_files\dp0\FFF\Fluent\FFF.1-2-00000.cas.h5" in NODE0 mode and compression level 1 ...
Grouping cells for Laplace smoothing ...
      156144 cells,     1 zone  ...
      321264 faces,     4 zones ...
       30668 nodes,     1 zone  ...
  Done.
Done.

Writing to DESKTOP-4S49BHM:"C:\Users\joyoo\OneDrive\Desktop\OSAS-digital-twinning\ansys\ANSYS proj\trial_1\dynamic_mesh_files\dp0\FFF\Fluent\FFF.1-2-00000.dat.h5" in NODE0 mode and compression level 1 ...
  Writing results.
Done.
Registering UdfSource, ("C:/Users/joyoo/OneDrive/Desktop/OSAS-digital-twinning/ansys/ANSYS proj/trial_1/dynamic_mesh_files/dp0/FFF/Fluent/push_wall_movement.c")
Registering Udflib, ("C:/Users/joyoo/OneDrive/Desktop/OSAS-digital-twinning/ansys/ANSYS proj/trial_1/dynamic_mesh_files/dp0/FFF/Fluent/libudf")

Writing Settings file "C:\Users\joyoo\OneDrive\Desktop\OSAS-digital-twinning\ansys\ANSYS proj\trial_1\dynamic_mesh_files\dp0\FFF\Fluent\FFF.1.set"...
	writing rp variables ... Done.
	writing domain variables ... Done.
	writing fff_fluid_domain (type fluid) (mixture) ... Done.
	writing inlet (type pressure-inlet) (mixture) ... Done.
	writing interior-fff_fluid_domain (type interior) (mixture) ... Done.
	writing push_wall (type wall) (mixture) ... Done.
	writing walls (type wall) (mixture) ... Done.
	writing dynamic zone fff_fluid_domain ... Done
	writing dynamic zone walls ... Done
	writing dynamic zone push_wall ... Done
	writing zones map name-id ... Done.

Writing to DESKTOP-4S49BHM:"C:\Users\joyoo\OneDrive\Desktop\OSAS-digital-twinning\ansys\ANSYS proj\trial_1\dynamic_mesh_files\dp0\FFF\Fluent\FFF.1-2-00000.cas.h5" in NODE0 mode and compression level 1 ...
Grouping cells for Laplace smoothing ...
      156144 cells,     1 zone  ...
      321264 faces,     4 zones ...
       30668 nodes,     1 zone  ...
  Done.
Done.

Writing to DESKTOP-4S49BHM:"C:\Users\joyoo\OneDrive\Desktop\OSAS-digital-twinning\ansys\ANSYS proj\trial_1\dynamic_mesh_files\dp0\FFF\Fluent\FFF.1-2-00000.dat.h5" in NODE0 mode and compression level 1 ...
  Writing results.
Done.


Writing to DESKTOP-4S49BHM:"C:\Users\joyoo\OneDrive\Desktop\OSAS-digital-twinning\ansys\ANSYS proj\trial_1\dynamic_mesh_files\dp0\FFF\Fluent\FFF.1-2-00000.cas.h5" in NODE0 mode and compression level 1 ...
Grouping cells for Laplace smoothing ...
      156144 cells,     1 zone  ...
      321264 faces,     4 zones ...
       30668 nodes,     1 zone  ...
  Done.
Done.

Writing to DESKTOP-4S49BHM:"C:\Users\joyoo\OneDrive\Desktop\OSAS-digital-twinning\ansys\ANSYS proj\trial_1\dynamic_mesh_files\dp0\FFF\Fluent\FFF.1-2-00000.dat.h5" in NODE0 mode and compression level 1 ...
  Writing results.
Done.

Updating solution at time level N...
 done.

Updating mesh at time level N... done.

  iter  continuity  x-velocity  y-velocity  z-velocity           k       omega     time/iter
     1  1.0000e+00  0.0000e+00  7.3613e-05  0.0000e+00  4.0623e-05  1.4252e+05  0:00:29   29

 Reversed flow on 177 faces (100.0% area) of pressure-inlet 5.
     2  1.0000e+00  3.5509e-02  1.5746e-01  1.2182e-02  2.1138e-01  1.1969e-01  0:00:34   28

 Reversed flow on 177 faces (100.0% area) of pressure-inlet 5.
     3  5.6424e-01  4.3860e-02  4.7030e-02  3.9610e-02  1.3581e-01  6.9931e-02  0:00:26   27

 Reversed flow on 177 faces (100.0% area) of pressure-inlet 5.
     4  3.4961e-01  1.6890e-02  2.5301e-02  1.4415e-02  1.3332e-01  4.7489e-02  0:00:25   26

 Reversed flow on 177 faces (100.0% area) of pressure-inlet 5.
     5  2.0713e-01  1.0969e-02  1.3049e-02  1.1127e-02  1.3167e-01  3.4499e-02  0:00:24   25

 Reversed flow on 177 faces (100.0% area) of pressure-inlet 5.
     6  1.7111e-01  4.7413e-03  8.6611e-03  4.7432e-03  1.2130e-01  2.2286e-02  0:00:19   24

 Reversed flow on 177 faces (100.0% area) of pressure-inlet 5.
     7  1.0032e-01  3.4908e-03  5.1895e-03  3.5131e-03  1.0572e-01  1.5273e-02  0:00:14   23

 Reversed flow on 177 faces (100.0% area) of pressure-inlet 5.
     8  7.8572e-02  2.2805e-03  3.4765e-03  2.2574e-03  9.2347e-02  1.0962e-02  0:00:15   22

 Reversed flow on 177 faces (100.0% area) of pressure-inlet 5.
     9  5.2630e-02  1.2970e-03  2.2211e-03  1.2755e-03  7.9869e-02  8.4895e-03  0:00:12   21

 Reversed flow on 177 faces (100.0% area) of pressure-inlet 5.
    10  3.9666e-02  8.6735e-04  1.6069e-03  8.5467e-04  6.8586e-02  6.9350e-03  0:00:13   20

 Reversed flow on 177 faces (100.0% area) of pressure-inlet 5.
    11  2.9908e-02  6.1536e-04  1.2733e-03  6.0639e-04  5.8767e-02  5.7512e-03  0:00:10   19

 Reversed flow on 177 faces (100.0% area) of pressure-inlet 5.

  iter  continuity  x-velocity  y-velocity  z-velocity           k       omega     time/iter
    12  2.2757e-02  4.7841e-04  1.0365e-03  4.7333e-04  5.0842e-02  4.8411e-03  0:00:07   18

 Reversed flow on 177 faces (100.0% area) of pressure-inlet 5.
    13  1.7542e-02  3.7571e-04  8.8769e-04  3.6842e-04  4.4534e-02  4.1515e-03  0:00:09   17

 Reversed flow on 177 faces (100.0% area) of pressure-inlet 5.
    14  1.3643e-02  3.0269e-04  7.7728e-04  2.9601e-04  3.9857e-02  3.6274e-03  0:00:07   16

 Reversed flow on 177 faces (100.0% area) of pressure-inlet 5.
    15  1.0724e-02  2.4924e-04  6.9011e-04  2.4418e-04  3.6527e-02  3.2009e-03  0:00:08   15

 Reversed flow on 177 faces (100.0% area) of pressure-inlet 5.
    16  8.4957e-03  2.1286e-04  6.1902e-04  2.0773e-04  3.4078e-02  2.8596e-03  0:00:06   14

 Reversed flow on 177 faces (100.0% area) of pressure-inlet 5.
    17  6.9958e-03  1.7688e-04  5.5895e-04  1.7342e-04  3.2353e-02  2.5887e-03  0:00:04   13

 Reversed flow on 177 faces (100.0% area) of pressure-inlet 5.
    18  5.5232e-03  1.6143e-04  5.1453e-04  1.5866e-04  3.1086e-02  2.3425e-03  0:00:06   12

 Reversed flow on 177 faces (100.0% area) of pressure-inlet 5.
    19  4.4475e-03  1.3949e-04  4.6982e-04  1.3741e-04  3.0188e-02  2.1484e-03  0:00:04   11

 Reversed flow on 177 faces (100.0% area) of pressure-inlet 5.
    20  3.6334e-03  1.2133e-04  4.3164e-04  1.2001e-04  2.9666e-02  1.9884e-03  0:00:05   10

 Reversed flow on 177 faces (100.0% area) of pressure-inlet 5.
    21  3.0228e-03  1.0878e-04  3.9801e-04  1.0725e-04  2.9438e-02  1.8647e-03  0:00:04    9

 Reversed flow on 177 faces (100.0% area) of pressure-inlet 5.
    22  2.5464e-03  9.9111e-05  3.6446e-04  9.8354e-05  2.9496e-02  1.7388e-03  0:00:03    8

 Reversed flow on 177 faces (100.0% area) of pressure-inlet 5.

  iter  continuity  x-velocity  y-velocity  z-velocity           k       omega     time/iter
    23  2.1478e-03  8.7747e-05  3.3725e-04  8.7138e-05  2.9848e-02  1.6315e-03  0:00:03    7

 Reversed flow on 177 faces (100.0% area) of pressure-inlet 5.
    24  1.8424e-03  7.8539e-05  3.1262e-04  7.8629e-05  3.0546e-02  1.5398e-03  0:00:02    6

 Reversed flow on 177 faces (100.0% area) of pressure-inlet 5.
    25  1.5996e-03  7.1621e-05  2.9040e-04  7.1844e-05  3.1579e-02  1.4649e-03  0:00:01    5

 Reversed flow on 177 faces (100.0% area) of pressure-inlet 5.
    26  1.4027e-03  6.6018e-05  2.6952e-04  6.5991e-05  3.3014e-02  1.3985e-03  0:00:02    4

 Reversed flow on 177 faces (100.0% area) of pressure-inlet 5.
    27  1.2391e-03  6.0887e-05  2.5031e-04  6.0184e-05  3.4847e-02  1.3421e-03  0:00:01    3

 Reversed flow on 177 faces (100.0% area) of pressure-inlet 5.
    28  1.1022e-03  5.6152e-05  2.3240e-04  5.5094e-05  3.6992e-02  1.2919e-03  0:00:01    2

 Reversed flow on 177 faces (100.0% area) of pressure-inlet 5.
    29  9.8699e-04  5.1856e-05  2.1555e-04  5.0642e-05  3.9371e-02  1.2481e-03  0:00:00    1

 Reversed flow on 177 faces (100.0% area) of pressure-inlet 5.
    30  8.8776e-04  4.7791e-05  1.9976e-04  4.6309e-05  4.1892e-02  1.2073e-03  0:00:00    0
Flow time = 0.05s, time step = 1
39 more time steps

Updating solution at time level N...
 done.

Updating mesh at time level N... done.

WARNING: 468 cells with non-positive volume detected.
Error at host: Update-Dynamic-Mesh failed. Negative cell volume detected.

===============Message from the Cortex Process================================

Compute processes interrupted. Processing can be resumed.

==============================================================================

Error: Update-Dynamic-Mesh failed. Negative cell volume detected.
Error Object: ()

Error at Node 1: Update-Dynamic-Mesh failed. Negative cell volume detected.

Error at Node 0: Update-Dynamic-Mesh failed. Negative cell volume detected.

Error at Node 3: Update-Dynamic-Mesh failed. Negative cell volume detected.

Error at Node 2: Update-Dynamic-Mesh failed. Negative cell volume detected.

Error: Update-Dynamic-Mesh failed. Negative cell volume detected.
Error Object: #f
Registering UdfSource, ("C:/Users/joyoo/OneDrive/Desktop/OSAS-digital-twinning/ansys/ANSYS proj/trial_1/dynamic_mesh_files/dp0/FFF/Fluent/push_wall_movement.c")
Registering Udflib, ("C:/Users/joyoo/OneDrive/Desktop/OSAS-digital-twinning/ansys/ANSYS proj/trial_1/dynamic_mesh_files/dp0/FFF/Fluent/libudf")
Writing "| gzip -2cf > SolutionMonitor.gz"...
Writing temporary file C:\Users\joyoo\AppData\Local\Temp\flntgz-24482 ...
Done.


Calculation complete.


Updating solution at time level N...
 done.

Updating mesh at time level N... 
>> Dividing domain into 4 partitions using Metis.
   Time = 0.142 seconds.
   Done.

>> 4 Stored Partitions:
   ----------------------------------------------------------------------
   Collective Partition Statistics:        Minimum   Maximum   Total     
   ----------------------------------------------------------------------
   Cell count                              37106     37176     148579    
   Mean cell count deviation               -0.1%     0.1%      
   Partition boundary cell count           1232      1918      6178      
   Partition boundary cell count ratio     3.3%      5.2%      4.2%      

   Face count                              76817     77433     305237    
   Mean face count deviation               -0.4%     0.4%      
   Partition boundary face count           1333      2078      3372      
   Partition boundary face count ratio     1.7%      2.7%      1.1%      

   Cell weights                            4e+05     4e+05     1e+06     
   Mean cell weight deviation              -0.1%     0.1%      

   Partition neighbor count                2         3         
   ----------------------------------------------------------------------
   Partition Method                        Metis                                
   Stored Partition Count                  4                                    
Done.

   Smoothing partition boundaries...
SF length_scale = 1.41175e-02
SF num nodes in dir = 3
SF num nodes in dir = 5
SF num nodes in dir = 3
SF all nodes = 1000done.

  iter  continuity  x-velocity  y-velocity  z-velocity           k       omega     time/iter
    30  8.8776e-04  4.7791e-05  1.9976e-04  4.6309e-05  4.1892e-02  1.2073e-03  0:00:09   30

 Reversed flow on 177 faces (100.0% area) of pressure-inlet 5.
    31  2.6237e-02  6.0719e-04  2.8133e-03  5.9130e-04  4.1120e-02  9.5196e-02  0:00:13   29

 Reversed flow on 177 faces (100.0% area) of pressure-inlet 5.
    32  2.4552e-02  7.2798e-04  1.9387e-03  7.1979e-04  3.9175e-02  5.1447e-02  0:00:16   28

 Reversed flow on 177 faces (100.0% area) of pressure-inlet 5.
    33  2.8810e-02  1.2973e-03  1.8921e-03  1.3134e-03  3.9066e-02  1.5645e-02  0:00:12   27

 Reversed flow on 177 faces (100.0% area) of pressure-inlet 5.
    34  1.5822e-02  4.8627e-04  1.1066e-03  4.9029e-04  3.7826e-02  5.5277e-03  0:00:09   26

 Reversed flow on 177 faces (100.0% area) of pressure-inlet 5.
    35  1.0797e-02  3.5558e-04  5.9412e-04  3.5539e-04  3.6140e-02  3.3956e-03  0:00:12   25

 Reversed flow on 177 faces (100.0% area) of pressure-inlet 5.
    36  7.5306e-03  2.5532e-04  3.6497e-04  2.5175e-04  3.3694e-02  2.1405e-03  0:00:09   24

 Reversed flow on 177 faces (100.0% area) of pressure-inlet 5.
    37  5.3837e-03  1.7169e-04  2.6092e-04  1.7255e-04  3.0581e-02  1.5947e-03  0:00:12   23

 Reversed flow on 177 faces (100.0% area) of pressure-inlet 5.
    38  3.9751e-03  1.0575e-04  1.9941e-04  1.0576e-04  2.7001e-02  1.2318e-03  0:00:09   22

 Reversed flow on 177 faces (100.0% area) of pressure-inlet 5.
    39  2.9962e-03  7.9212e-05  1.7242e-04  7.8847e-05  2.3155e-02  9.7904e-04  0:00:11   21

 Reversed flow on 177 faces (100.0% area) of pressure-inlet 5.
    40  2.2818e-03  5.8006e-05  1.4355e-04  5.6984e-05  1.9262e-02  8.1384e-04  0:00:08   20

 Reversed flow on 177 faces (100.0% area) of pressure-inlet 5.

  iter  continuity  x-velocity  y-velocity  z-velocity           k       omega     time/iter
    41  1.7701e-03  4.7709e-05  1.2091e-04  4.6629e-05  1.5548e-02  6.6905e-04  0:00:06   19

 Reversed flow on 177 faces (100.0% area) of pressure-inlet 5.
    42  1.3881e-03  3.9068e-05  1.0359e-04  3.8420e-05  1.2197e-02  5.6510e-04  0:00:08   18

 Reversed flow on 177 faces (100.0% area) of pressure-inlet 5.
    43  1.1043e-03  3.1658e-05  9.0294e-05  3.1035e-05  9.3178e-03  4.7239e-04  0:00:06   17

 Reversed flow on 177 faces (100.0% area) of pressure-inlet 5.
    44  8.8365e-04  2.6183e-05  7.9822e-05  2.5721e-05  6.9324e-03  3.9814e-04  0:00:08   16

 Reversed flow on 177 faces (100.0% area) of pressure-inlet 5.
    45  7.1574e-04  2.2180e-05  7.0876e-05  2.1694e-05  5.0345e-03  3.3661e-04  0:00:06   15

 Reversed flow on 177 faces (100.0% area) of pressure-inlet 5.
    46  5.8653e-04  1.9059e-05  6.3413e-05  1.8549e-05  3.5795e-03  2.8609e-04  0:00:04   14

 Reversed flow on 177 faces (100.0% area) of pressure-inlet 5.
    47  4.8478e-04  1.6616e-05  5.7088e-05  1.6027e-05  2.4815e-03  2.4466e-04  0:00:06   13

 Reversed flow on 177 faces (100.0% area) of pressure-inlet 5.
    48  4.0407e-04  1.4496e-05  5.1685e-05  1.3862e-05  1.6890e-03  2.1093e-04  0:00:04   12

 Reversed flow on 177 faces (100.0% area) of pressure-inlet 5.
    49  3.3983e-04  1.2771e-05  4.7035e-05  1.2106e-05  1.1438e-03  1.8428e-04  0:00:05   11

 Reversed flow on 177 faces (100.0% area) of pressure-inlet 5.
    50  2.8873e-04  1.1289e-05  4.2855e-05  1.0643e-05  7.7524e-04  1.6198e-04  0:00:04   10
!   50 solution is converged
Flow time = 0.06s, time step = 2
39 more time steps

Updating solution at time level N...
 done.

Updating mesh at time level N... 
>> Dividing domain into 4 partitions using Metis.
   Time = 0.117 seconds.
   Done.

>> 4 Stored Partitions:
   ----------------------------------------------------------------------
   Collective Partition Statistics:        Minimum   Maximum   Total     
   ----------------------------------------------------------------------
   Cell count                              34141     34150     136583    
   Mean cell count deviation               -0.0%     0.0%      
   Partition boundary cell count           1074      1858      5660      
   Partition boundary cell count ratio     3.1%      5.4%      4.1%      

   Face count                              70416     71132     280027    
   Mean face count deviation               -0.5%     0.5%      
   Partition boundary face count           1154      2054      3106      
   Partition boundary face count ratio     1.6%      2.9%      1.1%      

   Cell weights                            3e+05     3e+05     1e+06     
   Mean cell weight deviation              -0.0%     0.0%      

   Partition neighbor count                2         3         
   ----------------------------------------------------------------------
   Partition Method                        Metis                                
   Stored Partition Count                  4                                    
Done.

   Smoothing partition boundaries...
SF length_scale = 1.41175e-02
SF num nodes in dir = 3
SF num nodes in dir = 5
SF num nodes in dir = 3
SF all nodes = 1000done.

  iter  continuity  x-velocity  y-velocity  z-velocity           k       omega     time/iter
    50  2.8873e-04  1.1289e-05  4.2855e-05  1.0643e-05  7.7524e-04  1.6198e-04  0:00:12   30
!   50 solution is converged

 Reversed flow on 177 faces (100.0% area) of pressure-inlet 5.
    51  2.6722e-03  8.8088e-05  2.9836e-04  8.6750e-05  4.2131e-02  5.3410e-02  0:00:15   29

 Reversed flow on 177 faces (100.0% area) of pressure-inlet 5.
    52  9.3599e-03  6.0009e-04  1.3806e-03  6.0780e-04  3.9911e-02  2.3808e-02  0:00:17   28

 Reversed flow on 177 faces (100.0% area) of pressure-inlet 5.
    53  4.0667e-03  2.6458e-04  7.2460e-04  2.6977e-04  3.8475e-02  8.8537e-03  0:00:13   27

 Reversed flow on 177 faces (100.0% area) of pressure-inlet 5.
    54  4.3760e-03  3.9690e-04  4.4213e-04  3.9665e-04  3.5949e-02  3.5412e-03  0:00:10   26

 Reversed flow on 177 faces (100.0% area) of pressure-inlet 5.
    55  2.1575e-03  1.5450e-04  2.2601e-04  1.5400e-04  3.2558e-02  1.7682e-03  0:00:13   25

 Reversed flow on 177 faces (100.0% area) of pressure-inlet 5.
    56  1.3774e-03  8.4763e-05  1.4846e-04  8.4985e-05  2.8789e-02  1.0709e-03  0:00:10   24

 Reversed flow on 177 faces (100.0% area) of pressure-inlet 5.
    57  1.0118e-03  5.4215e-05  1.1273e-04  5.3406e-05  2.4790e-02  7.6143e-04  0:00:12   23

 Reversed flow on 177 faces (100.0% area) of pressure-inlet 5.
    58  7.9817e-04  3.9236e-05  9.3839e-05  3.8244e-05  2.0806e-02  5.9048e-04  0:00:09   22

 Reversed flow on 177 faces (100.0% area) of pressure-inlet 5.
    59  6.3543e-04  2.9423e-05  8.0241e-05  2.8900e-05  1.7027e-02  4.7669e-04  0:00:07   21

 Reversed flow on 177 faces (100.0% area) of pressure-inlet 5.
    60  5.1957e-04  2.3375e-05  7.0633e-05  2.3178e-05  1.3596e-02  3.9367e-04  0:00:09   20

 Reversed flow on 177 faces (100.0% area) of pressure-inlet 5.

  iter  continuity  x-velocity  y-velocity  z-velocity           k       omega     time/iter
    61  4.2841e-04  1.9448e-05  6.2756e-05  1.9210e-05  1.0613e-02  3.2712e-04  0:00:07   19

 Reversed flow on 177 faces (100.0% area) of pressure-inlet 5.
    62  3.6041e-04  1.6606e-05  5.6463e-05  1.6343e-05  8.1264e-03  2.7260e-04  0:00:09   18

 Reversed flow on 177 faces (100.0% area) of pressure-inlet 5.
    63  3.0463e-04  1.4728e-05  5.1080e-05  1.4329e-05  6.1026e-03  2.2835e-04  0:00:07   17

 Reversed flow on 177 faces (100.0% area) of pressure-inlet 5.
    64  2.5584e-04  1.2374e-05  4.5988e-05  1.1888e-05  4.4991e-03  1.9258e-04  0:00:05   16

 Reversed flow on 177 faces (100.0% area) of pressure-inlet 5.
    65  2.1896e-04  1.0875e-05  4.1571e-05  1.0241e-05  3.2732e-03  1.6243e-04  0:00:07   15

 Reversed flow on 177 faces (100.0% area) of pressure-inlet 5.
    66  1.9037e-04  9.5636e-06  3.7660e-05  9.0410e-06  2.3455e-03  1.3778e-04  0:00:05   14

 Reversed flow on 177 faces (100.0% area) of pressure-inlet 5.
    67  1.6585e-04  8.5947e-06  3.4290e-05  7.9653e-06  1.6561e-03  1.1763e-04  0:00:06   13

 Reversed flow on 177 faces (100.0% area) of pressure-inlet 5.
    68  1.4661e-04  7.7105e-06  3.1133e-05  7.1325e-06  1.1715e-03  1.0137e-04  0:00:05   12

 Reversed flow on 177 faces (100.0% area) of pressure-inlet 5.
    69  1.3252e-04  7.2280e-06  2.8601e-05  6.5579e-06  8.3350e-04  8.8011e-05  0:00:03   11
!   69 solution is converged
Flow time = 0.07000000000000001s, time step = 3
38 more time steps

Updating solution at time level N...
 done.

Updating mesh at time level N... 
>> Dividing domain into 4 partitions using Metis.
   Time = 0.113 seconds.
   Done.

>> 4 Stored Partitions:
   ----------------------------------------------------------------------
   Collective Partition Statistics:        Minimum   Maximum   Total     
   ----------------------------------------------------------------------
   Cell count                              34094     34111     136412    
   Mean cell count deviation               -0.0%     0.0%      
   Partition boundary cell count           1230      1607      5575      
   Partition boundary cell count ratio     3.6%      4.7%      4.1%      

   Face count                              70168     71109     279685    
   Mean face count deviation               -0.7%     0.6%      
   Partition boundary face count           1347      1765      3045      
   Partition boundary face count ratio     1.9%      2.5%      1.1%      

   Cell weights                            3e+05     3e+05     1e+06     
   Mean cell weight deviation              -0.0%     0.0%      

   Partition neighbor count                3         3         
   ----------------------------------------------------------------------
   Partition Method                        Metis                                
   Stored Partition Count                  4                                    
Done.

   Smoothing partition boundaries...
SF length_scale = 1.41175e-02
SF num nodes in dir = 3
SF num nodes in dir = 5
SF num nodes in dir = 3
SF all nodes = 1000done.

  iter  continuity  x-velocity  y-velocity  z-velocity           k       omega     time/iter
    69  1.3252e-04  7.2280e-06  2.8601e-05  6.5579e-06  8.3350e-04  8.8011e-05  0:00:09   30

 Reversed flow on 177 faces (100.0% area) of pressure-inlet 5.
    70  3.1967e-03  6.3860e-05  3.1666e-04  6.2549e-05  3.3643e-02  5.1885e-02  0:00:13   29

 Reversed flow on 177 faces (100.0% area) of pressure-inlet 5.
    71  1.0123e-02  6.9913e-04  1.6417e-03  7.1115e-04  2.9314e-02  1.7048e-02  0:00:10   28

 Reversed flow on 177 faces (100.0% area) of pressure-inlet 5.
    72  3.9861e-03  2.9737e-04  8.6018e-04  3.0276e-04  2.6490e-02  6.6383e-03  0:00:13   27

 Reversed flow on 177 faces (100.0% area) of pressure-inlet 5.
    73  4.6938e-03  4.5497e-04  4.7741e-04  4.5456e-04  2.3011e-02  2.6337e-03  0:00:10   26

 Reversed flow on 177 faces (100.0% area) of pressure-inlet 5.
    74  2.1695e-03  1.7024e-04  2.2228e-04  1.7047e-04  1.9346e-02  1.2988e-03  0:00:13   25

 Reversed flow on 177 faces (100.0% area) of pressure-inlet 5.
    75  1.3850e-03  9.0809e-05  1.3747e-04  9.1459e-05  1.5951e-02  7.7495e-04  0:00:10   24

 Reversed flow on 177 faces (100.0% area) of pressure-inlet 5.
    76  9.9026e-04  5.6891e-05  1.0157e-04  5.6426e-05  1.2905e-02  5.5229e-04  0:00:08   23

 Reversed flow on 177 faces (100.0% area) of pressure-inlet 5.
    77  7.5804e-04  3.9610e-05  8.1109e-05  3.9300e-05  1.0256e-02  4.2903e-04  0:00:10   22

 Reversed flow on 177 faces (100.0% area) of pressure-inlet 5.
    78  6.0498e-04  2.9666e-05  6.8345e-05  2.9493e-05  8.0280e-03  3.5005e-04  0:00:08   21

 Reversed flow on 177 faces (100.0% area) of pressure-inlet 5.
    79  4.9256e-04  2.3670e-05  5.8746e-05  2.3579e-05  6.2028e-03  2.8981e-04  0:00:10   20

 Reversed flow on 177 faces (100.0% area) of pressure-inlet 5.

  iter  continuity  x-velocity  y-velocity  z-velocity           k       omega     time/iter
    80  4.1489e-04  1.9861e-05  5.1451e-05  1.9955e-05  4.7314e-03  2.4561e-04  0:00:08   19

 Reversed flow on 177 faces (100.0% area) of pressure-inlet 5.
    81  3.2983e-04  1.6308e-05  4.4914e-05  1.6020e-05  3.5711e-03  2.0989e-04  0:00:09   18

 Reversed flow on 177 faces (100.0% area) of pressure-inlet 5.
    82  2.7336e-04  1.3775e-05  3.9834e-05  1.3483e-05  2.6764e-03  1.8218e-04  0:00:07   17

 Reversed flow on 177 faces (100.0% area) of pressure-inlet 5.
    83  2.3022e-04  1.2109e-05  3.5502e-05  1.1712e-05  1.9962e-03  1.5750e-04  0:00:05   16

 Reversed flow on 177 faces (100.0% area) of pressure-inlet 5.
    84  1.9450e-04  1.0450e-05  3.1797e-05  1.0019e-05  1.4907e-03  1.3855e-04  0:00:07   15

 Reversed flow on 177 faces (100.0% area) of pressure-inlet 5.
    85  1.6727e-04  9.3414e-06  2.8786e-05  8.7793e-06  1.1168e-03  1.2270e-04  0:00:05   14

 Reversed flow on 177 faces (100.0% area) of pressure-inlet 5.
    86  1.4527e-04  8.3298e-06  2.6041e-05  7.7917e-06  8.4531e-04  1.1056e-04  0:00:06   13
!   86 solution is converged
Flow time = 0.08s, time step = 4
37 more time steps

Updating solution at time level N...
 done.

Updating mesh at time level N... done.

  iter  continuity  x-velocity  y-velocity  z-velocity           k       omega     time/iter
    86  1.4527e-04  8.3298e-06  2.6041e-05  7.7917e-06  8.4531e-04  1.1056e-04  0:00:15   30

 Reversed flow on 177 faces (100.0% area) of pressure-inlet 5.
    87  1.2350e-03  4.7095e-05  3.1411e-04  4.5882e-05  1.7328e-02  1.1062e-02  0:00:17   29

 Reversed flow on 177 faces (100.0% area) of pressure-inlet 5.
    88  1.0146e-02  7.5636e-04  1.8338e-03  7.7013e-04  1.4388e-02  5.7875e-03  0:00:13   28

 Reversed flow on 177 faces (100.0% area) of pressure-inlet 5.
    89  3.8992e-03  3.2792e-04  9.6867e-04  3.3435e-04  1.2018e-02  2.9745e-03  0:00:16   27

 Reversed flow on 177 faces (100.0% area) of pressure-inlet 5.
    90  4.8637e-03  4.9925e-04  5.1885e-04  4.9937e-04  9.6929e-03  1.4109e-03  0:00:12   26

 Reversed flow on 177 faces (100.0% area) of pressure-inlet 5.
    91  2.1895e-03  1.8666e-04  2.3648e-04  1.8658e-04  7.5668e-03  8.8259e-04  0:00:09   25

 Reversed flow on 177 faces (100.0% area) of pressure-inlet 5.
    92  1.3159e-03  9.5873e-05  1.4678e-04  9.6711e-05  5.8947e-03  6.1358e-04  0:00:12   24

 Reversed flow on 177 faces (100.0% area) of pressure-inlet 5.
    93  9.4839e-04  5.9814e-05  1.0786e-04  5.9377e-05  4.5770e-03  4.7752e-04  0:00:09   23

 Reversed flow on 177 faces (100.0% area) of pressure-inlet 5.
    94  7.3058e-04  4.1213e-05  8.6619e-05  4.1192e-05  3.5508e-03  3.9140e-04  0:00:11   22

 Reversed flow on 177 faces (100.0% area) of pressure-inlet 5.
    95  5.8720e-04  3.0737e-05  7.2251e-05  3.0932e-05  2.7542e-03  3.3015e-04  0:00:09   21

 Reversed flow on 177 faces (100.0% area) of pressure-inlet 5.
    96  4.8721e-04  2.4535e-05  6.1340e-05  2.4692e-05  2.1383e-03  2.8368e-04  0:00:11   20

 Reversed flow on 177 faces (100.0% area) of pressure-inlet 5.

  iter  continuity  x-velocity  y-velocity  z-velocity           k       omega     time/iter
    97  3.8983e-04  1.9858e-05  5.2502e-05  1.9778e-05  1.6730e-03  2.4746e-04  0:00:08   19

 Reversed flow on 177 faces (100.0% area) of pressure-inlet 5.
    98  3.1982e-04  1.6384e-05  4.5968e-05  1.6215e-05  1.3242e-03  2.2120e-04  0:00:10   18

 Reversed flow on 177 faces (100.0% area) of pressure-inlet 5.
    99  2.6435e-04  1.3949e-05  4.0487e-05  1.3672e-05  1.0594e-03  1.9926e-04  0:00:07   17

 Reversed flow on 177 faces (100.0% area) of pressure-inlet 5.
   100  2.2255e-04  1.1902e-05  3.6008e-05  1.1681e-05  8.5884e-04  1.8253e-04  0:00:09   16
!  100 solution is converged
Flow time = 0.09s, time step = 5
36 more time steps

Updating solution at time level N...
 done.

Updating mesh at time level N... done.

  iter  continuity  x-velocity  y-velocity  z-velocity           k       omega     time/iter
   100  2.2255e-04  1.1902e-05  3.6008e-05  1.1681e-05  8.5884e-04  1.8253e-04  0:00:16   30

 Reversed flow on 177 faces (100.0% area) of pressure-inlet 5.
   101  1.2515e-03  5.2250e-05  3.5992e-04  5.1163e-05  8.9232e-03  1.3664e-02  0:00:18   29

 Reversed flow on 177 faces (100.0% area) of pressure-inlet 5.
   102  1.1119e-02  8.6033e-04  2.1157e-03  8.7875e-04  6.9907e-03  5.9735e-03  0:00:20   28

 Reversed flow on 177 faces (100.0% area) of pressure-inlet 5.
   103  4.2035e-03  3.6847e-04  1.1450e-03  3.7571e-04  5.5961e-03  3.3698e-03  0:00:15   27

 Reversed flow on 177 faces (100.0% area) of pressure-inlet 5.
   104  5.4805e-03  5.8401e-04  6.0586e-04  5.8519e-04  4.3884e-03  1.6151e-03  0:00:12   26

 Reversed flow on 177 faces (100.0% area) of pressure-inlet 5.
   105  2.3981e-03  2.1387e-04  2.7125e-04  2.1326e-04  3.2334e-03  1.0075e-03  0:00:14   25

 Reversed flow on 177 faces (100.0% area) of pressure-inlet 5.
   106  1.4011e-03  1.0776e-04  1.7022e-04  1.0846e-04  2.4679e-03  6.9965e-04  0:00:11   24

 Reversed flow on 177 faces (100.0% area) of pressure-inlet 5.
   107  9.9455e-04  6.6513e-05  1.2639e-04  6.5804e-05  1.9293e-03  5.3723e-04  0:00:13   23

 Reversed flow on 177 faces (100.0% area) of pressure-inlet 5.
   108  7.6796e-04  4.5494e-05  1.0227e-04  4.5207e-05  1.5461e-03  4.4086e-04  0:00:10   22

 Reversed flow on 177 faces (100.0% area) of pressure-inlet 5.
   109  6.2346e-04  3.3888e-05  8.5631e-05  3.3874e-05  1.2687e-03  3.7678e-04  0:00:08   21

 Reversed flow on 177 faces (100.0% area) of pressure-inlet 5.
   110  5.2717e-04  2.7133e-05  7.1892e-05  2.7375e-05  1.0585e-03  3.2531e-04  0:00:10   20

 Reversed flow on 177 faces (100.0% area) of pressure-inlet 5.

  iter  continuity  x-velocity  y-velocity  z-velocity           k       omega     time/iter
   111  4.0901e-04  2.1582e-05  6.1695e-05  2.1634e-05  8.9391e-04  2.8740e-04  0:00:07   19
!  111 solution is converged
Flow time = 0.09999999999999999s, time step = 6
35 more time steps

Updating solution at time level N...
 done.

Updating mesh at time level N... 
>> Dividing domain into 4 partitions using Metis.
   Time = 0.106 seconds.
   Done.

>> 4 Stored Partitions:
   ----------------------------------------------------------------------
   Collective Partition Statistics:        Minimum   Maximum   Total     
   ----------------------------------------------------------------------
   Cell count                              31090     31105     124389    
   Mean cell count deviation               -0.0%     0.0%      
   Partition boundary cell count           1182      1478      5528      
   Partition boundary cell count ratio     3.8%      4.8%      4.4%      

   Face count                              64013     64832     254634    
   Mean face count deviation               -0.6%     0.6%      
   Partition boundary face count           1302      1629      3027      
   Partition boundary face count ratio     2.0%      2.5%      1.2%      

   Cell weights                            3e+05     3e+05     1e+06     
   Mean cell weight deviation              -0.0%     0.0%      

   Partition neighbor count                3         3         
   ----------------------------------------------------------------------
   Partition Method                        Metis                                
   Stored Partition Count                  4                                    
Done.

   Smoothing partition boundaries...
SF length_scale = 1.41175e-02
SF num nodes in dir = 3
SF num nodes in dir = 5
SF num nodes in dir = 3
SF all nodes = 1000done.

  iter  continuity  x-velocity  y-velocity  z-velocity           k       omega     time/iter
   111  4.0901e-04  2.1582e-05  6.1695e-05  2.1634e-05  8.9391e-04  2.8740e-04  0:00:12   30

 Reversed flow on 177 faces (100.0% area) of pressure-inlet 5.
   112  4.3150e-03  9.3322e-05  5.1296e-04  9.4633e-05  8.5459e-03  4.0320e-02  0:00:09   29

 Reversed flow on 176 faces (99.6% area) of pressure-inlet 5.
   113  1.2686e-02  1.0028e-03  2.4860e-03  1.0277e-03  5.5879e-03  1.4035e-02  0:00:13   28

 Reversed flow on 177 faces (100.0% area) of pressure-inlet 5.
   114  4.9851e-03  4.2822e-04  1.3432e-03  4.3642e-04  4.0552e-03  5.8855e-03  0:00:10   27

 Reversed flow on 177 faces (100.0% area) of pressure-inlet 5.
   115  6.1826e-03  6.6793e-04  6.9020e-04  6.6864e-04  3.1454e-03  2.4169e-03  0:00:13   26

 Reversed flow on 177 faces (100.0% area) of pressure-inlet 5.
   116  2.8082e-03  2.4883e-04  3.1146e-04  2.4704e-04  2.2069e-03  1.2915e-03  0:00:10   25

 Reversed flow on 177 faces (100.0% area) of pressure-inlet 5.
   117  1.7191e-03  1.2426e-04  2.0111e-04  1.2484e-04  1.6841e-03  8.0897e-04  0:00:07   24

 Reversed flow on 177 faces (100.0% area) of pressure-inlet 5.
   118  1.2197e-03  7.5198e-05  1.4977e-04  7.4019e-05  1.3538e-03  5.9667e-04  0:00:10   23

 Reversed flow on 177 faces (100.0% area) of pressure-inlet 5.
   119  9.4565e-04  5.2064e-05  1.2147e-04  5.1602e-05  1.1333e-03  4.7673e-04  0:00:08   22

 Reversed flow on 177 faces (100.0% area) of pressure-inlet 5.
   120  7.5323e-04  3.8615e-05  1.0226e-04  3.8654e-05  9.7909e-04  4.0241e-04  0:00:10   21
!  120 solution is converged
Flow time = 0.11s, time step = 7
34 more time steps

Updating solution at time level N...
 done.

Updating mesh at time level N... done.

  iter  continuity  x-velocity  y-velocity  z-velocity           k       omega     time/iter
   120  7.5323e-04  3.8615e-05  1.0226e-04  3.8654e-05  9.7909e-04  4.0241e-04  0:00:15   30

 Reversed flow on 177 faces (100.0% area) of pressure-inlet 5.
   121  2.4760e-03  8.8816e-05  5.5669e-04  8.9980e-05  6.9627e-03  2.2528e-02  0:00:17   29

 Reversed flow on 173 faces (98.3% area) of pressure-inlet 5.
   122  1.2526e-02  1.0820e-03  2.7428e-03  1.1100e-03  5.2329e-03  9.0236e-03  0:00:13   28

 Reversed flow on 175 faces (99.1% area) of pressure-inlet 5.
   123  4.8380e-03  4.7046e-04  1.4985e-03  4.7919e-04  3.8739e-03  4.4950e-03  0:00:10   27

 Reversed flow on 177 faces (100.0% area) of pressure-inlet 5.
   124  6.2249e-03  7.3526e-04  7.6670e-04  7.3571e-04  3.0422e-03  1.9371e-03  0:00:13   26

 Reversed flow on 177 faces (100.0% area) of pressure-inlet 5.
   125  2.8406e-03  2.7210e-04  3.5099e-04  2.7084e-04  2.1154e-03  1.0681e-03  0:00:10   25

 Reversed flow on 177 faces (100.0% area) of pressure-inlet 5.
   126  1.6865e-03  1.3354e-04  2.2834e-04  1.3380e-04  1.6282e-03  6.6213e-04  0:00:13   24

 Reversed flow on 177 faces (100.0% area) of pressure-inlet 5.
   127  1.2014e-03  8.0259e-05  1.7174e-04  7.9271e-05  1.3406e-03  4.6542e-04  0:00:10   23

 Reversed flow on 177 faces (100.0% area) of pressure-inlet 5.
   128  9.5251e-04  5.6031e-05  1.3927e-04  5.5348e-05  1.1508e-03  3.5875e-04  0:00:07   22

 Reversed flow on 177 faces (100.0% area) of pressure-inlet 5.
   129  7.6313e-04  4.1994e-05  1.1732e-04  4.1609e-05  1.0208e-03  2.9176e-04  0:00:10   21

 Reversed flow on 177 faces (100.0% area) of pressure-inlet 5.
   130  6.3264e-04  3.3291e-05  9.9601e-05  3.3183e-05  9.1994e-04  2.3697e-04  0:00:07   20
!  130 solution is converged
Flow time = 0.12s, time step = 8
33 more time steps

Updating solution at time level N...
 done.

Updating mesh at time level N... done.

  iter  continuity  x-velocity  y-velocity  z-velocity           k       omega     time/iter
   130  6.3264e-04  3.3291e-05  9.9601e-05  3.3183e-05  9.1994e-04  2.3697e-04  0:00:11   30

 Reversed flow on 177 faces (100.0% area) of pressure-inlet 5.
   131  1.6046e-03  8.0083e-05  5.9235e-04  8.0337e-05  7.1377e-03  1.1567e-02  0:00:14   29

 Reversed flow on 172 faces (97.8% area) of pressure-inlet 5.
   132  1.3005e-02  1.2108e-03  3.1113e-03  1.2463e-03  5.5329e-03  5.9535e-03  0:00:11   28

 Reversed flow on 173 faces (98.3% area) of pressure-inlet 5.
   133  4.8159e-03  5.1573e-04  1.7322e-03  5.2770e-04  4.0985e-03  3.7071e-03  0:00:09   27

 Reversed flow on 177 faces (100.0% area) of pressure-inlet 5.
   134  6.6022e-03  8.4170e-04  8.7941e-04  8.4278e-04  3.2688e-03  1.7077e-03  0:00:12   26

 Reversed flow on 177 faces (100.0% area) of pressure-inlet 5.
   135  2.8501e-03  3.0327e-04  3.9314e-04  3.0093e-04  2.2730e-03  1.0296e-03  0:00:09   25

 Reversed flow on 177 faces (100.0% area) of pressure-inlet 5.
   136  1.6513e-03  1.4786e-04  2.6007e-04  1.4802e-04  1.7726e-03  6.6507e-04  0:00:12   24

 Reversed flow on 177 faces (100.0% area) of pressure-inlet 5.
   137  1.1651e-03  8.7468e-05  1.9336e-04  8.6598e-05  1.4829e-03  4.8123e-04  0:00:09   23

 Reversed flow on 177 faces (100.0% area) of pressure-inlet 5.
   138  9.1404e-04  6.0592e-05  1.5485e-04  5.9466e-05  1.2913e-03  3.8181e-04  0:00:07   22

 Reversed flow on 177 faces (100.0% area) of pressure-inlet 5.
   139  7.4356e-04  4.5233e-05  1.2906e-04  4.4746e-05  1.1515e-03  3.1219e-04  0:00:09   21

 Reversed flow on 177 faces (100.0% area) of pressure-inlet 5.
   140  6.0087e-04  3.5092e-05  1.0913e-04  3.4916e-05  1.0400e-03  2.5536e-04  0:00:07   20

 Reversed flow on 177 faces (100.0% area) of pressure-inlet 5.

  iter  continuity  x-velocity  y-velocity  z-velocity           k       omega     time/iter
   141  4.7400e-04  2.8030e-05  9.3924e-05  2.7983e-05  9.4400e-04  2.1119e-04  0:00:09   19
!  141 solution is converged
Flow time = 0.13s, time step = 9
32 more time steps

Updating solution at time level N...
 done.

Updating mesh at time level N... done.

  iter  continuity  x-velocity  y-velocity  z-velocity           k       omega     time/iter
   141  4.7400e-04  2.8030e-05  9.3924e-05  2.7983e-05  9.4400e-04  2.1119e-04  0:00:15   30

 Reversed flow on 177 faces (100.0% area) of pressure-inlet 5.
   142  1.5966e-03  8.5132e-05  6.9138e-04  8.5786e-05  7.5270e-03  1.4170e-02  0:00:17   29

 Reversed flow on 171 faces (97.3% area) of pressure-inlet 5.
   143  1.3652e-02  1.3705e-03  3.5700e-03  1.4167e-03  5.8928e-03  7.3236e-03  0:00:13   28

 Reversed flow on 172 faces (97.8% area) of pressure-inlet 5.
   144  4.9267e-03  5.8903e-04  1.9071e-03  6.0445e-04  4.2617e-03  4.1442e-03  0:00:16   27

 Reversed flow on 177 faces (100.0% area) of pressure-inlet 5.
   145  6.1663e-03  8.8015e-04  9.2873e-04  8.8129e-04  3.4047e-03  1.9064e-03  0:00:12   26

 Reversed flow on 177 faces (100.0% area) of pressure-inlet 5.
   146  2.7577e-03  3.2624e-04  4.2927e-04  3.2267e-04  2.4178e-03  1.1300e-03  0:00:09   25

 Reversed flow on 177 faces (100.0% area) of pressure-inlet 5.
   147  1.7739e-03  1.6696e-04  2.8968e-04  1.6691e-04  1.9230e-03  7.1308e-04  0:00:12   24

 Reversed flow on 177 faces (100.0% area) of pressure-inlet 5.
   148  1.2007e-03  9.5361e-05  2.1175e-04  9.4393e-05  1.6154e-03  5.0651e-04  0:00:09   23

 Reversed flow on 177 faces (100.0% area) of pressure-inlet 5.
   149  9.6628e-04  6.5836e-05  1.6795e-04  6.4871e-05  1.4053e-03  3.9995e-04  0:00:11   22

 Reversed flow on 177 faces (100.0% area) of pressure-inlet 5.
   150  7.8118e-04  4.8519e-05  1.3851e-04  4.8137e-05  1.2448e-03  3.1134e-04  0:00:09   21

 Reversed flow on 177 faces (100.0% area) of pressure-inlet 5.
   151  5.9522e-04  3.7560e-05  1.1785e-04  3.7301e-05  1.1125e-03  2.4560e-04  0:00:11   20

 Reversed flow on 177 faces (100.0% area) of pressure-inlet 5.

  iter  continuity  x-velocity  y-velocity  z-velocity           k       omega     time/iter
   152  4.7608e-04  2.9666e-05  1.0129e-04  2.9769e-05  9.9770e-04  2.0011e-04  0:00:08   19
!  152 solution is converged
Flow time = 0.14s, time step = 10
31 more time steps

Updating solution at time level N...
 done.

Updating mesh at time level N... done.

  iter  continuity  x-velocity  y-velocity  z-velocity           k       omega     time/iter
   152  4.7608e-04  2.9666e-05  1.0129e-04  2.9769e-05  9.9770e-04  2.0011e-04  0:00:13   30

 Reversed flow on 177 faces (100.0% area) of pressure-inlet 5.
   153  2.1975e-03  1.1076e-04  8.3623e-04  1.1225e-04  8.1524e-03  2.5345e-02  0:00:10   29

 Reversed flow on 170 faces (96.8% area) of pressure-inlet 5.
   154  1.4285e-02  1.5443e-03  4.0794e-03  1.6037e-03  6.4133e-03  1.1165e-02  0:00:13   28

 Reversed flow on 170 faces (96.8% area) of pressure-inlet 5.
   155  5.2558e-03  6.6467e-04  2.2302e-03  6.8340e-04  4.5695e-03  5.3584e-03  0:00:10   27

 Reversed flow on 177 faces (100.0% area) of pressure-inlet 5.
   156  6.8544e-03  1.0359e-03  1.0997e-03  1.0384e-03  3.6716e-03  2.3441e-03  0:00:13   26

 Reversed flow on 177 faces (100.0% area) of pressure-inlet 5.
   157  3.0584e-03  3.7661e-04  4.9125e-04  3.7158e-04  2.5871e-03  1.2789e-03  0:00:10   25

 Reversed flow on 177 faces (100.0% area) of pressure-inlet 5.
   158  1.8244e-03  1.8660e-04  3.3482e-04  1.8607e-04  2.0334e-03  7.6426e-04  0:00:08   24

 Reversed flow on 177 faces (100.0% area) of pressure-inlet 5.
   159  1.2544e-03  1.0536e-04  2.3808e-04  1.0435e-04  1.7067e-03  5.3920e-04  0:00:11   23

 Reversed flow on 177 faces (100.0% area) of pressure-inlet 5.
   160  1.0521e-03  7.3756e-05  1.8286e-04  7.3208e-05  1.4605e-03  4.0577e-04  0:00:08   22

 Reversed flow on 177 faces (100.0% area) of pressure-inlet 5.
   161  7.7714e-04  5.2721e-05  1.5165e-04  5.2499e-05  1.2722e-03  3.1100e-04  0:00:06   21

 Reversed flow on 177 faces (100.0% area) of pressure-inlet 5.
   162  6.0483e-04  4.0362e-05  1.2833e-04  4.0260e-05  1.1224e-03  2.4805e-04  0:00:09   20

 Reversed flow on 177 faces (100.0% area) of pressure-inlet 5.

  iter  continuity  x-velocity  y-velocity  z-velocity           k       omega     time/iter
   163  4.8386e-04  3.1900e-05  1.0862e-04  3.1981e-05  9.9497e-04  2.0175e-04  0:00:07   19
!  163 solution is converged
Flow time = 0.15s, time step = 11
30 more time steps

Updating solution at time level N...
 done.

Updating mesh at time level N... 
>> Dividing domain into 4 partitions using Metis.
   Time = 0.106 seconds.
   Done.

>> 4 Stored Partitions:
   ----------------------------------------------------------------------
   Collective Partition Statistics:        Minimum   Maximum   Total     
   ----------------------------------------------------------------------
   Cell count                              29106     29177     116569    
   Mean cell count deviation               -0.1%     0.1%      
   Partition boundary cell count           1070      1543      5260      
   Partition boundary cell count ratio     3.7%      5.3%      4.5%      

   Face count                              59731     60827     238599    
   Mean face count deviation               -1.1%     0.8%      
   Partition boundary face count           1142      1716      2861      
   Partition boundary face count ratio     1.9%      2.9%      1.2%      

   Cell weights                            3e+05     3e+05     1e+06     
   Mean cell weight deviation              -0.1%     0.1%      

   Partition neighbor count                2         3         
   ----------------------------------------------------------------------
   Partition Method                        Metis                                
   Stored Partition Count                  4                                    
Done.

   Smoothing partition boundaries...
SF length_scale = 1.41175e-02
SF num nodes in dir = 3
SF num nodes in dir = 5
SF num nodes in dir = 3
SF all nodes = 1000done.

  iter  continuity  x-velocity  y-velocity  z-velocity           k       omega     time/iter
   163  4.8386e-04  3.1900e-05  1.0862e-04  3.1981e-05  9.9497e-04  2.0175e-04  0:00:10   30

 Reversed flow on 177 faces (100.0% area) of pressure-inlet 5.
   164  6.4098e-03  2.2954e-04  1.1214e-03  2.3329e-04  1.2078e-02  7.4585e-02  0:00:14   29

 Reversed flow on 168 faces (95.8% area) of pressure-inlet 5.
   165  1.5051e-02  1.7921e-03  4.6589e-03  1.8742e-03  7.6445e-03  2.2993e-02  0:00:11   28

 Reversed flow on 170 faces (96.8% area) of pressure-inlet 5.
   166  5.9659e-03  7.7875e-04  2.5734e-03  8.0647e-04  4.9560e-03  9.0233e-03  0:00:14   27

 Reversed flow on 176 faces (99.6% area) of pressure-inlet 5.
   167  6.7869e-03  1.1927e-03  1.2657e-03  1.2019e-03  3.7345e-03  3.3228e-03  0:00:11   26

 Reversed flow on 177 faces (100.0% area) of pressure-inlet 5.
   168  3.1906e-03  4.2865e-04  5.6638e-04  4.2307e-04  2.5576e-03  1.5341e-03  0:00:08   25

 Reversed flow on 177 faces (100.0% area) of pressure-inlet 5.
   169  2.1850e-03  2.1262e-04  3.4472e-04  2.1265e-04  1.9817e-03  8.2613e-04  0:00:11   24

 Reversed flow on 177 faces (100.0% area) of pressure-inlet 5.
   170  1.5825e-03  1.3015e-04  2.5729e-04  1.2853e-04  1.6148e-03  4.9614e-04  0:00:08   23

 Reversed flow on 177 faces (100.0% area) of pressure-inlet 5.
   171  1.1350e-03  8.3689e-05  2.0437e-04  8.2845e-05  1.3689e-03  3.4423e-04  0:00:11   22

 Reversed flow on 177 faces (100.0% area) of pressure-inlet 5.
   172  8.7708e-04  5.9763e-05  1.6753e-04  5.9387e-05  1.1891e-03  2.6654e-04  0:00:08   21

 Reversed flow on 177 faces (100.0% area) of pressure-inlet 5.
   173  6.8870e-04  4.5579e-05  1.3890e-04  4.6103e-05  1.0447e-03  2.0531e-04  0:00:10   20

 Reversed flow on 177 faces (100.0% area) of pressure-inlet 5.

  iter  continuity  x-velocity  y-velocity  z-velocity           k       omega     time/iter
   174  5.3431e-04  3.5518e-05  1.1795e-04  3.5918e-05  9.2368e-04  1.6744e-04  0:00:08   19
!  174 solution is converged
Flow time = 0.16s, time step = 12
29 more time steps

Updating solution at time level N...
 done.

Updating mesh at time level N... done.

  iter  continuity  x-velocity  y-velocity  z-velocity           k       omega     time/iter
   174  5.3431e-04  3.5518e-05  1.1795e-04  3.5918e-05  9.2368e-04  1.6744e-04  0:00:12   30

 Reversed flow on 177 faces (100.0% area) of pressure-inlet 5.
   175  2.0011e-03  1.3922e-04  1.1933e-03  1.4245e-04  1.0254e-02  1.1266e-02  0:00:10   29

 Reversed flow on 164 faces (93.7% area) of pressure-inlet 5.
   176  1.3809e-02  1.9656e-03  5.2385e-03  2.0679e-03  7.8395e-03  4.8671e-03  0:00:13   28

 Reversed flow on 164 faces (93.7% area) of pressure-inlet 5.
   177  4.9708e-03  8.4119e-04  3.0059e-03  8.7464e-04  5.3165e-03  3.5248e-03  0:00:10   27

 Reversed flow on 173 faces (98.3% area) of pressure-inlet 5.
   178  6.5868e-03  1.3815e-03  1.4737e-03  1.3908e-03  3.9407e-03  1.7392e-03  0:00:08   26

 Reversed flow on 177 faces (100.0% area) of pressure-inlet 5.
   179  2.8321e-03  4.8077e-04  6.3195e-04  4.7500e-04  2.6560e-03  1.0573e-03  0:00:11   25

 Reversed flow on 177 faces (100.0% area) of pressure-inlet 5.
   180  1.8547e-03  2.2890e-04  3.7558e-04  2.2821e-04  2.0272e-03  6.8608e-04  0:00:08   24

 Reversed flow on 177 faces (100.0% area) of pressure-inlet 5.
   181  1.3602e-03  1.3994e-04  2.7850e-04  1.3866e-04  1.6241e-03  4.4081e-04  0:00:06   23

 Reversed flow on 177 faces (100.0% area) of pressure-inlet 5.
   182  9.6464e-04  8.7958e-05  2.1768e-04  8.7543e-05  1.3600e-03  3.1839e-04  0:00:09   22

 Reversed flow on 177 faces (100.0% area) of pressure-inlet 5.
   183  7.5280e-04  6.2334e-05  1.7590e-04  6.2271e-05  1.1593e-03  2.4758e-04  0:00:07   21

 Reversed flow on 177 faces (100.0% area) of pressure-inlet 5.
   184  5.8529e-04  4.7086e-05  1.4467e-04  4.7383e-05  1.0033e-03  1.9192e-04  0:00:09   20

 Reversed flow on 177 faces (100.0% area) of pressure-inlet 5.

  iter  continuity  x-velocity  y-velocity  z-velocity           k       omega     time/iter
   185  4.5608e-04  3.6155e-05  1.2149e-04  3.6681e-05  8.7255e-04  1.5026e-04  0:00:07   19
!  185 solution is converged
Flow time = 0.17s, time step = 13
28 more time steps

Updating solution at time level N...
 done.

Updating mesh at time level N... done.

  iter  continuity  x-velocity  y-velocity  z-velocity           k       omega     time/iter
   185  4.5608e-04  3.6155e-05  1.2149e-04  3.6681e-05  8.7255e-04  1.5026e-04  0:00:11   30

 Reversed flow on 177 faces (100.0% area) of pressure-inlet 5.
   186  1.5724e-03  1.4684e-04  1.4227e-03  1.4900e-04  1.1690e-02  6.4783e-03  0:00:15   29

 Reversed flow on 158 faces (90.2% area) of pressure-inlet 5.
   187  1.4002e-02  2.2930e-03  6.1586e-03  2.4306e-03  8.7181e-03  3.7673e-03  0:00:11   28

 Reversed flow on 157 faces (89.6% area) of pressure-inlet 5.
   188  5.0206e-03  9.8678e-04  3.5629e-03  1.0336e-03  6.1586e-03  3.0073e-03  0:00:14   27

 Reversed flow on 169 faces (96.3% area) of pressure-inlet 5.
   189  6.7568e-03  1.6419e-03  1.7715e-03  1.6559e-03  4.2864e-03  1.6785e-03  0:00:16   26

 Reversed flow on 176 faces (99.6% area) of pressure-inlet 5.
   190  2.8972e-03  5.6208e-04  7.3149e-04  5.5526e-04  2.8007e-03  1.0488e-03  0:00:12   25

 Reversed flow on 177 faces (100.0% area) of pressure-inlet 5.
   191  1.7904e-03  2.5921e-04  4.4112e-04  2.6002e-04  2.0493e-03  6.2531e-04  0:00:09   24

 Reversed flow on 177 faces (100.0% area) of pressure-inlet 5.
   192  1.2376e-03  1.4174e-04  3.0680e-04  1.4047e-04  1.6322e-03  4.3154e-04  0:00:12   23

 Reversed flow on 177 faces (100.0% area) of pressure-inlet 5.
   193  9.7798e-04  9.3851e-05  2.2852e-04  9.3910e-05  1.3350e-03  3.0543e-04  0:00:09   22

 Reversed flow on 177 faces (100.0% area) of pressure-inlet 5.
   194  7.2375e-04  6.6571e-05  1.8612e-04  6.6375e-05  1.1185e-03  2.2884e-04  0:00:11   21

 Reversed flow on 177 faces (100.0% area) of pressure-inlet 5.
   195  5.6452e-04  5.0004e-05  1.5329e-04  4.9919e-05  9.5185e-04  1.7734e-04  0:00:08   20
!  195 solution is converged
Flow time = 0.18s, time step = 14
27 more time steps

Updating solution at time level N...
 done.

Updating mesh at time level N... done.

  iter  continuity  x-velocity  y-velocity  z-velocity           k       omega     time/iter
   195  5.6452e-04  5.0004e-05  1.5329e-04  4.9919e-05  9.5185e-04  1.7734e-04  0:00:13   30

 Reversed flow on 177 faces (100.0% area) of pressure-inlet 5.
   196  1.6666e-03  1.7970e-04  1.7691e-03  1.8274e-04  1.4241e-02  6.3696e-03  0:00:16   29

 Reversed flow on 156 faces (88.9% area) of pressure-inlet 5.
   197  1.4007e-02  2.6814e-03  7.2842e-03  2.8659e-03  1.0458e-02  3.7256e-03  0:00:12   28

 Reversed flow on 152 faces (86.6% area) of pressure-inlet 5.
   198  4.7076e-03  1.1523e-03  3.9851e-03  1.2037e-03  6.8701e-03  2.6183e-03  0:00:15   27

 Reversed flow on 165 faces (94.3% area) of pressure-inlet 5.
   199  6.3100e-03  1.7596e-03  1.9041e-03  1.7738e-03  4.4571e-03  1.5538e-03  0:00:11   26

 Reversed flow on 167 faces (95.4% area) of pressure-inlet 5.
   200  2.7016e-03  5.8162e-04  8.0054e-04  5.7552e-04  2.8010e-03  9.6060e-04  0:00:09   25

 Reversed flow on 176 faces (99.6% area) of pressure-inlet 5.
   201  1.7403e-03  2.7016e-04  4.8860e-04  2.6967e-04  2.0625e-03  6.0041e-04  0:00:11   24

 Reversed flow on 177 faces (100.0% area) of pressure-inlet 5.
   202  1.3183e-03  1.6087e-04  3.4142e-04  1.5942e-04  1.6185e-03  4.1862e-04  0:00:09   23

 Reversed flow on 177 faces (100.0% area) of pressure-inlet 5.
   203  1.0224e-03  1.0576e-04  2.5810e-04  1.0533e-04  1.3122e-03  2.9083e-04  0:00:11   22

 Reversed flow on 177 faces (100.0% area) of pressure-inlet 5.
   204  7.4038e-04  7.4657e-05  2.0692e-04  7.4465e-05  1.0859e-03  2.1565e-04  0:00:09   21

 Reversed flow on 177 faces (100.0% area) of pressure-inlet 5.
   205  5.7441e-04  5.5330e-05  1.6742e-04  5.5336e-05  9.0747e-04  1.6023e-04  0:00:06   20
!  205 solution is converged
Flow time = 0.19s, time step = 15
26 more time steps

Updating solution at time level N...
 done.

Updating mesh at time level N... done.

  iter  continuity  x-velocity  y-velocity  z-velocity           k       omega     time/iter
   205  5.7441e-04  5.5330e-05  1.6742e-04  5.5336e-05  9.0747e-04  1.6023e-04  0:00:10   30

 Reversed flow on 177 faces (100.0% area) of pressure-inlet 5.
   206  1.7565e-03  2.2572e-04  2.2587e-03  2.3033e-04  1.8031e-02  8.5102e-03  0:00:13   29

 Reversed flow on 149 faces (85.2% area) of pressure-inlet 5.
   207  1.3900e-02  3.1953e-03  8.7521e-03  3.4516e-03  1.2385e-02  4.1662e-03  0:00:10   28

 Reversed flow on 148 faces (84.7% area) of pressure-inlet 5.
   208  4.7036e-03  1.4032e-03  4.7438e-03  1.4733e-03  8.6515e-03  2.8644e-03  0:00:08   27

 Reversed flow on 155 faces (88.7% area) of pressure-inlet 5.
   209  6.1095e-03  2.0450e-03  2.2641e-03  2.0595e-03  5.0170e-03  1.7019e-03  0:00:11   26

 Reversed flow on 165 faces (94.3% area) of pressure-inlet 5.
   210  2.6850e-03  6.5935e-04  9.4744e-04  6.5390e-04  3.0223e-03  9.4492e-04  0:00:09   25

 Reversed flow on 167 faces (95.4% area) of pressure-inlet 5.
   211  1.7641e-03  3.0923e-04  5.7244e-04  3.0980e-04  2.1373e-03  5.8389e-04  0:00:07   24

 Reversed flow on 173 faces (98.2% area) of pressure-inlet 5.
   212  1.3167e-03  1.8316e-04  3.9672e-04  1.8124e-04  1.6307e-03  4.1826e-04  0:00:10   23

 Reversed flow on 175 faces (99.1% area) of pressure-inlet 5.
   213  1.0473e-03  1.2224e-04  2.9761e-04  1.2188e-04  1.2971e-03  2.9466e-04  0:00:07   22

 Reversed flow on 177 faces (100.0% area) of pressure-inlet 5.
   214  7.4113e-04  8.4655e-05  2.3385e-04  8.4703e-05  1.0497e-03  2.0290e-04  0:00:06   21

 Reversed flow on 177 faces (100.0% area) of pressure-inlet 5.
   215  5.6381e-04  6.1416e-05  1.8544e-04  6.1274e-05  8.6046e-04  1.5048e-04  0:00:08   20
!  215 solution is converged
Flow time = 0.2s, time step = 16
25 more time steps

Updating solution at time level N...
 done.

Updating mesh at time level N... done.

  iter  continuity  x-velocity  y-velocity  z-velocity           k       omega     time/iter
   215  5.6381e-04  6.1416e-05  1.8544e-04  6.1274e-05  8.6046e-04  1.5048e-04  0:00:12   30

 Reversed flow on 177 faces (100.0% area) of pressure-inlet 5.
   216  1.7782e-03  2.8360e-04  2.9699e-03  2.9147e-04  2.5380e-02  7.8913e-03  0:00:15   29

 Reversed flow on 136 faces (78.0% area) of pressure-inlet 5.
   217  1.3541e-02  3.8834e-03  1.0701e-02  4.2493e-03  1.5908e-02  3.7868e-03  0:00:12   28

 Reversed flow on 139 faces (79.5% area) of pressure-inlet 5.
   218  4.4908e-03  1.6768e-03  5.7874e-03  1.7809e-03  1.2283e-02  2.8860e-03  0:00:15   27

 Reversed flow on 146 faces (83.5% area) of pressure-inlet 5.
   219  6.0380e-03  2.4658e-03  2.7320e-03  2.4817e-03  6.3679e-03  1.8416e-03  0:00:11   26

 Reversed flow on 149 faces (85.6% area) of pressure-inlet 5.
   220  2.7322e-03  7.5198e-04  1.1249e-03  7.4860e-04  3.6016e-03  1.0507e-03  0:00:09   25

 Reversed flow on 155 faces (88.6% area) of pressure-inlet 5.
   221  1.7545e-03  3.5191e-04  6.9238e-04  3.5317e-04  2.3712e-03  5.9215e-04  0:00:11   24

 Reversed flow on 158 faces (90.5% area) of pressure-inlet 5.
   222  1.2741e-03  2.0502e-04  4.7859e-04  2.0314e-04  1.6989e-03  3.9462e-04  0:00:09   23

 Reversed flow on 162 faces (92.8% area) of pressure-inlet 5.
   223  9.8402e-04  1.3598e-04  3.5369e-04  1.3482e-04  1.2850e-03  2.9887e-04  0:00:11   22

 Reversed flow on 165 faces (94.3% area) of pressure-inlet 5.
   224  7.5129e-04  9.4190e-05  2.7068e-04  9.3395e-05  1.0047e-03  2.1613e-04  0:00:08   21

 Reversed flow on 166 faces (94.9% area) of pressure-inlet 5.
   225  5.5615e-04  6.9443e-05  2.1342e-04  6.8994e-05  8.0109e-04  1.5648e-04  0:00:06   20
!  225 solution is converged
Flow time = 0.21s, time step = 17
24 more time steps

Updating solution at time level N...
 done.

Updating mesh at time level N... done.

  iter  continuity  x-velocity  y-velocity  z-velocity           k       omega     time/iter
   225  5.5615e-04  6.9443e-05  2.1342e-04  6.8994e-05  8.0109e-04  1.5648e-04  0:00:10   30

 Reversed flow on 167 faces (95.3% area) of pressure-inlet 5.
   226  1.8169e-03  3.7569e-04  4.0687e-03  3.8860e-04  3.2857e-02  9.1354e-03  0:00:08   29

 Reversed flow on 123 faces (70.5% area) of pressure-inlet 5.
   227  1.3019e-02  4.9301e-03  1.3499e-02  5.4777e-03  1.9466e-02  3.7756e-03  0:00:11   28

 Reversed flow on 122 faces (69.2% area) of pressure-inlet 5.
   228  4.3295e-03  2.0593e-03  7.2427e-03  2.1944e-03  1.6421e-02  2.7769e-03  0:00:09   27

 Reversed flow on 129 faces (74.0% area) of pressure-inlet 5.
   229  5.9938e-03  3.1266e-03  3.4710e-03  3.1510e-03  8.2744e-03  1.6699e-03  0:00:07   26

 Reversed flow on 131 faces (75.2% area) of pressure-inlet 5.
   230  2.7894e-03  8.9867e-04  1.4195e-03  9.0206e-04  4.6041e-03  1.0236e-03  0:00:10   25

 Reversed flow on 136 faces (78.1% area) of pressure-inlet 5.
   231  1.7777e-03  4.2378e-04  8.8607e-04  4.2791e-04  2.8598e-03  6.2829e-04  0:00:08   24

 Reversed flow on 138 faces (78.9% area) of pressure-inlet 5.
   232  1.2565e-03  2.4149e-04  6.1274e-04  2.3978e-04  1.8982e-03  4.0747e-04  0:00:11   23

 Reversed flow on 140 faces (79.9% area) of pressure-inlet 5.
   233  9.1561e-04  1.5095e-04  4.5056e-04  1.4948e-04  1.3568e-03  3.1342e-04  0:00:08   22

 Reversed flow on 144 faces (82.3% area) of pressure-inlet 5.
   234  7.3753e-04  1.1107e-04  3.3558e-04  1.1004e-04  9.9431e-04  2.3219e-04  0:00:06   21
!  234 solution is converged
Flow time = 0.2200000000000001s, time step = 18
23 more time steps

Updating solution at time level N...
 done.

Updating mesh at time level N... done.

  iter  continuity  x-velocity  y-velocity  z-velocity           k       omega     time/iter
   234  7.3753e-04  1.1107e-04  3.3558e-04  1.1004e-04  9.9431e-04  2.3219e-04  0:00:09   30

 Reversed flow on 144 faces (82.3% area) of pressure-inlet 5.
   235  1.9529e-03  5.3233e-04  5.8494e-03  5.5661e-04  4.9302e-02  9.3136e-03  0:00:13   29

 Reversed flow on 113 faces (64.4% area) of pressure-inlet 5.
   236  1.2322e-02  6.4849e-03  1.7685e-02  7.3092e-03  3.0828e-02  3.5180e-03  0:00:10   28

 Reversed flow on 112 faces (63.8% area) of pressure-inlet 5.
   237  4.4554e-03  3.5685e-03  6.9844e-03  3.7642e-03  1.8536e-02  1.5346e-03  0:00:08   27

 Reversed flow on 112 faces (63.8% area) of pressure-inlet 5.
   238  2.9530e-03  1.9130e-03  3.5384e-03  1.9620e-03  9.8466e-03  9.4380e-04  0:00:11   26

 Reversed flow on 111 faces (63.4% area) of pressure-inlet 5.
   239  1.9985e-03  8.9308e-04  2.1000e-03  9.1052e-04  6.4892e-03  7.5506e-04  0:00:08   25

 Reversed flow on 111 faces (63.4% area) of pressure-inlet 5.
   240  1.7694e-03  6.3135e-04  1.2587e-03  6.4043e-04  4.5105e-03  5.7944e-04  0:00:07   24

 Reversed flow on 111 faces (63.4% area) of pressure-inlet 5.
   241  1.3038e-03  3.5266e-04  8.2280e-04  3.5455e-04  3.0340e-03  4.2096e-04  0:00:10   23

 Reversed flow on 114 faces (64.9% area) of pressure-inlet 5.
   242  9.9291e-04  2.1732e-04  5.8206e-04  2.1869e-04  2.0584e-03  2.9318e-04  0:00:07   22

 Reversed flow on 115 faces (65.7% area) of pressure-inlet 5.
   243  7.4499e-04  1.4419e-04  4.2928e-04  1.4489e-04  1.4608e-03  2.0863e-04  0:00:10   21

 Reversed flow on 115 faces (65.7% area) of pressure-inlet 5.
   244  5.8282e-04  1.0762e-04  3.2245e-04  1.0743e-04  1.0219e-03  1.4411e-04  0:00:07   20

 Reversed flow on 115 faces (65.7% area) of pressure-inlet 5.

  iter  continuity  x-velocity  y-velocity  z-velocity           k       omega     time/iter
   245  4.4371e-04  8.0537e-05  2.4359e-04  8.0255e-05  7.2425e-04  9.7514e-05  0:00:06   19
!  245 solution is converged
Flow time = 0.2300000000000001s, time step = 19
22 more time steps

Updating solution at time level N...
 done.

Updating mesh at time level N... done.

  iter  continuity  x-velocity  y-velocity  z-velocity           k       omega     time/iter
   245  4.4371e-04  8.0537e-05  2.4359e-04  8.0255e-05  7.2425e-04  9.7514e-05  0:00:09   30

 Reversed flow on 117 faces (66.4% area) of pressure-inlet 5.
   246  1.8688e-03  7.6174e-04  8.7157e-03  8.0825e-04  7.1009e-02  7.6906e-03  0:00:07   29

 Reversed flow on 94 faces (54.9% area) of pressure-inlet 5.
   247  1.1902e-02  8.6353e-03  2.3673e-02  9.6056e-03  3.7010e-02  2.9632e-03  0:00:11   28

 Reversed flow on 92 faces (54.0% area) of pressure-inlet 5.
   248  4.1404e-03  4.8716e-03  9.3753e-03  5.1467e-03  2.3414e-02  1.2373e-03  0:00:08   27

 Reversed flow on 92 faces (54.0% area) of pressure-inlet 5.
   249  2.7346e-03  2.5650e-03  4.6764e-03  2.6463e-03  1.5530e-02  8.4485e-04  0:00:12   26

 Reversed flow on 92 faces (54.0% area) of pressure-inlet 5.
   250  2.1394e-03  1.4153e-03  2.5971e-03  1.4392e-03  9.5731e-03  6.1977e-04  0:00:09   25

 Reversed flow on 92 faces (54.0% area) of pressure-inlet 5.
   251  1.6120e-03  7.3542e-04  1.5429e-03  7.4070e-04  6.9605e-03  4.3550e-04  0:00:07   24

 Reversed flow on 93 faces (54.6% area) of pressure-inlet 5.
   252  1.1607e-03  3.7167e-04  1.0046e-03  3.7378e-04  4.8749e-03  2.9383e-04  0:00:10   23

 Reversed flow on 93 faces (54.6% area) of pressure-inlet 5.
   253  8.6787e-04  2.3510e-04  6.9537e-04  2.3499e-04  3.9135e-03  2.1087e-04  0:00:08   22

 Reversed flow on 93 faces (54.6% area) of pressure-inlet 5.
   254  6.6407e-04  1.6472e-04  5.0254e-04  1.6402e-04  2.8559e-03  1.4363e-04  0:00:06   21

 Reversed flow on 93 faces (54.6% area) of pressure-inlet 5.
   255  4.9572e-04  1.1844e-04  3.6963e-04  1.1773e-04  2.1495e-03  1.0193e-04  0:00:08   20

 Reversed flow on 93 faces (54.6% area) of pressure-inlet 5.

  iter  continuity  x-velocity  y-velocity  z-velocity           k       omega     time/iter
   256  3.8070e-04  8.7909e-05  2.7277e-04  8.7172e-05  1.5635e-03  7.1594e-05  0:00:06   19

 Reversed flow on 93 faces (54.6% area) of pressure-inlet 5.
   257  2.9978e-04  6.4936e-05  2.0314e-04  6.4302e-05  1.1645e-03  5.3239e-05  0:00:05   18

 Reversed flow on 94 faces (55.1% area) of pressure-inlet 5.
   258  2.2779e-04  5.1520e-05  1.5330e-04  5.1149e-05  8.3124e-04  3.7786e-05  0:00:07   17
!  258 solution is converged
Flow time = 0.2400000000000001s, time step = 20
21 more time steps

Updating solution at time level N...
 done.

Updating mesh at time level N... done.

  iter  continuity  x-velocity  y-velocity  z-velocity           k       omega     time/iter
   258  2.2779e-04  5.1520e-05  1.5330e-04  5.1149e-05  8.3124e-04  3.7786e-05  0:00:12   30

 Reversed flow on 94 faces (55.1% area) of pressure-inlet 5.
   259  1.8994e-03  1.1826e-03  1.3517e-02  1.2666e-03  1.1225e-01  9.3539e-03  0:00:10   29

 Reversed flow on 68 faces (39.8% area) of pressure-inlet 5.
   260  1.1093e-02  1.0664e-02  2.8660e-02  1.1018e-02  5.1586e-02  3.2168e-03  0:00:13   28

 Reversed flow on 68 faces (39.8% area) of pressure-inlet 5.
   261  3.8145e-03  5.7796e-03  1.1199e-02  5.9422e-03  3.0375e-02  1.3269e-03  0:00:10   27

 Reversed flow on 66 faces (38.2% area) of pressure-inlet 5.
   262  2.5779e-03  3.1088e-03  5.2997e-03  3.1631e-03  1.9698e-02  7.4953e-04  0:00:13   26

 Reversed flow on 65 faces (37.3% area) of pressure-inlet 5.
   263  1.9038e-03  1.5349e-03  2.8684e-03  1.5544e-03  1.3644e-02  5.3814e-04  0:00:10   25

 Reversed flow on 64 faces (36.9% area) of pressure-inlet 5.
   264  1.6307e-03  9.6749e-04  1.7194e-03  9.7713e-04  1.0054e-02  3.6317e-04  0:00:08   24

 Reversed flow on 63 faces (36.4% area) of pressure-inlet 5.
   265  1.1381e-03  4.4679e-04  1.0977e-03  4.5055e-04  7.3474e-03  2.3473e-04  0:00:10   23

 Reversed flow on 63 faces (36.4% area) of pressure-inlet 5.
   266  8.2366e-04  2.7153e-04  7.4655e-04  2.7025e-04  6.2380e-03  1.6091e-04  0:00:08   22

 Reversed flow on 63 faces (36.4% area) of pressure-inlet 5.
   267  6.1749e-04  1.8799e-04  5.3089e-04  1.8515e-04  5.0229e-03  1.1352e-04  0:00:06   21

 Reversed flow on 62 faces (35.8% area) of pressure-inlet 5.
   268  4.7606e-04  1.4060e-04  3.8720e-04  1.3841e-04  4.2342e-03  8.1164e-05  0:00:09   20

 Reversed flow on 62 faces (35.8% area) of pressure-inlet 5.

  iter  continuity  x-velocity  y-velocity  z-velocity           k       omega     time/iter
   269  3.5637e-04  1.0037e-04  2.8726e-04  9.8903e-05  3.3516e-03  5.8196e-05  0:00:07   19

 Reversed flow on 62 faces (35.8% area) of pressure-inlet 5.
   270  2.7672e-04  7.1474e-05  2.1186e-04  7.0294e-05  2.3627e-03  3.7148e-05  0:00:05   18

 Reversed flow on 62 faces (35.8% area) of pressure-inlet 5.
   271  2.0541e-04  6.7005e-05  1.5755e-04  6.6142e-05  1.9619e-03  2.8095e-05  0:00:07   17

 Reversed flow on 62 faces (35.8% area) of pressure-inlet 5.
   272  1.5280e-04  4.3528e-05  1.1554e-04  4.3276e-05  1.4730e-03  2.0515e-05  0:00:05   16

 Reversed flow on 62 faces (35.8% area) of pressure-inlet 5.
   273  1.2019e-04  2.9996e-05  8.4398e-05  2.9786e-05  1.0590e-03  1.3478e-05  0:00:04   15

 Reversed flow on 62 faces (35.8% area) of pressure-inlet 5.
   274  8.8607e-05  3.3733e-05  7.1975e-05  3.3641e-05  7.7797e-04  9.9546e-06  0:00:06   14
!  274 solution is converged
Flow time = 0.2500000000000001s, time step = 21
20 more time steps

Updating solution at time level N...
 done.

Updating mesh at time level N... done.

  iter  continuity  x-velocity  y-velocity  z-velocity           k       omega     time/iter
   274  8.8607e-05  3.3733e-05  7.1975e-05  3.3641e-05  7.7797e-04  9.9546e-06  0:00:12   30

 Reversed flow on 62 faces (35.8% area) of pressure-inlet 5.
   275  1.8702e-03  1.5744e-03  1.8098e-02  1.6176e-03  1.7349e-01  5.6866e-03  0:00:15   29

 Reversed flow on 40 faces (22.7% area) of pressure-inlet 5.
   276  1.0454e-02  1.0356e-02  2.6268e-02  9.3794e-03  6.9075e-02  2.6889e-03  0:00:12   28

 Reversed flow on 39 faces (22.2% area) of pressure-inlet 5.
   277  3.5783e-03  4.8758e-03  9.9703e-03  4.7598e-03  4.0729e-02  1.2567e-03  0:00:15   27

 Reversed flow on 33 faces (18.5% area) of pressure-inlet 5.
   278  2.2538e-03  2.4351e-03  4.4930e-03  2.4021e-03  2.7466e-02  7.7171e-04  0:00:11   26

 Reversed flow on 30 faces (17.3% area) of pressure-inlet 5.
   279  1.9770e-03  1.5194e-03  2.2154e-03  1.5131e-03  2.0458e-02  5.3385e-04  0:00:09   25

 Reversed flow on 29 faces (16.6% area) of pressure-inlet 5.
   280  1.5800e-03  8.8206e-04  1.3173e-03  8.8046e-04  1.4320e-02  3.6208e-04  0:00:11   24

 Reversed flow on 28 faces (16.1% area) of pressure-inlet 5.
   281  1.1915e-03  4.7640e-04  8.5914e-04  4.7667e-04  1.1042e-02  2.3212e-04  0:00:09   23

 Reversed flow on 27 faces (15.9% area) of pressure-inlet 5.
   282  8.3319e-04  2.5773e-04  5.8285e-04  2.5771e-04  8.2644e-03  1.4834e-04  0:00:07   22

 Reversed flow on 27 faces (15.9% area) of pressure-inlet 5.
   283  6.0949e-04  1.8753e-04  3.8855e-04  1.8575e-04  6.3781e-03  9.9699e-05  0:00:09   21

 Reversed flow on 26 faces (15.1% area) of pressure-inlet 5.
   284  4.5242e-04  1.4216e-04  2.6623e-04  1.3969e-04  5.0812e-03  6.7443e-05  0:00:07   20

 Reversed flow on 26 faces (15.1% area) of pressure-inlet 5.

  iter  continuity  x-velocity  y-velocity  z-velocity           k       omega     time/iter
   285  3.2657e-04  1.0692e-04  1.9323e-04  1.0544e-04  4.0994e-03  4.8382e-05  0:00:09   19

 Reversed flow on 24 faces (13.9% area) of pressure-inlet 5.
   286  2.3974e-04  6.4548e-05  1.3272e-04  6.3556e-05  3.2778e-03  3.4000e-05  0:00:07   18

 Reversed flow on 24 faces (13.9% area) of pressure-inlet 5.
   287  1.7985e-04  4.5512e-05  9.5052e-05  4.5209e-05  2.5671e-03  2.4315e-05  0:00:09   17

 Reversed flow on 24 faces (13.9% area) of pressure-inlet 5.
   288  1.4081e-04  3.2339e-05  6.9645e-05  3.2168e-05  2.0047e-03  1.7165e-05  0:00:07   16

 Reversed flow on 24 faces (13.9% area) of pressure-inlet 5.
   289  1.0490e-04  2.5747e-05  5.1823e-05  2.5493e-05  1.5268e-03  1.2525e-05  0:00:05   15

 Reversed flow on 24 faces (13.9% area) of pressure-inlet 5.
   290  8.2856e-05  1.8387e-05  3.8237e-05  1.8251e-05  1.1807e-03  8.9143e-06  0:00:06   14

 Reversed flow on 24 faces (13.9% area) of pressure-inlet 5.
   291  6.1675e-05  1.5234e-05  2.9133e-05  1.5099e-05  8.7953e-04  6.6778e-06  0:00:05   13
!  291 solution is converged
Flow time = 0.2600000000000001s, time step = 22
19 more time steps

Updating solution at time level N...
 done.

Updating mesh at time level N... done.

  iter  continuity  x-velocity  y-velocity  z-velocity           k       omega     time/iter
   291  6.1675e-05  1.5234e-05  2.9133e-05  1.5099e-05  8.7953e-04  6.6778e-06  0:00:11   30

 Reversed flow on 24 faces (13.9% area) of pressure-inlet 5.
   292  1.8937e-03  1.4001e-03  1.5743e-02  1.3201e-03  2.1455e-01  5.9745e-03  0:00:09   29
   293  1.0021e-02  8.1101e-03  1.8630e-02  7.1330e-03  8.1325e-02  2.9053e-03  0:00:12   28
   294  3.5494e-03  3.0804e-03  7.0456e-03  2.9536e-03  5.1463e-02  1.4968e-03  0:00:09   27
   295  2.4044e-03  1.7878e-03  3.1730e-03  1.7617e-03  3.7467e-02  8.8376e-04  0:00:07   26
   296  1.8203e-03  9.5032e-04  1.6551e-03  9.3741e-04  2.5683e-02  6.3541e-04  0:00:11   25
   297  1.6812e-03  7.3144e-04  1.0059e-03  7.2710e-04  1.9492e-02  4.0334e-04  0:00:08   24
   298  1.1204e-03  3.2561e-04  6.1411e-04  3.2130e-04  1.4353e-02  2.5942e-04  0:00:06   23
   299  8.5478e-04  2.1351e-04  4.1181e-04  2.1043e-04  1.0733e-02  1.7256e-04  0:00:09   22
   300  6.3155e-04  1.4440e-04  2.8910e-04  1.4143e-04  8.0254e-03  1.2018e-04  0:00:07   21
   301  4.7695e-04  1.0524e-04  2.0735e-04  1.0319e-04  6.0555e-03  8.6434e-05  0:00:05   20

  iter  continuity  x-velocity  y-velocity  z-velocity           k       omega     time/iter
   302  3.6605e-04  7.9027e-05  1.5266e-04  7.7674e-05  4.5973e-03  6.3660e-05  0:00:08   19
   303  2.8288e-04  6.0423e-05  1.1638e-04  5.9470e-05  3.5310e-03  4.7588e-05  0:00:06   18
   304  2.1883e-04  4.5756e-05  9.0494e-05  4.5139e-05  2.7051e-03  3.5911e-05  0:00:08   17
   305  1.6906e-04  3.4823e-05  7.1218e-05  3.4373e-05  2.0652e-03  2.7317e-05  0:00:06   16
   306  1.3045e-04  2.6559e-05  5.5935e-05  2.6258e-05  1.5841e-03  2.0941e-05  0:00:04   15
   307  1.0073e-04  2.0492e-05  4.3809e-05  2.0274e-05  1.2042e-03  1.6145e-05  0:00:06   14
   308  7.8085e-05  1.5957e-05  3.4119e-05  1.5780e-05  9.0230e-04  1.2494e-05  0:00:05   13
!  308 solution is converged
Flow time = 0.2700000000000001s, time step = 23
18 more time steps

Updating solution at time level N...
 done.

Updating mesh at time level N... done.

  iter  continuity  x-velocity  y-velocity  z-velocity           k       omega     time/iter
   308  7.8085e-05  1.5957e-05  3.4119e-05  1.5780e-05  9.0230e-04  1.2494e-05  0:00:11   30
   309  1.8529e-03  9.3360e-04  1.0218e-02  8.6436e-04  1.8318e-01  7.0203e-03  0:00:14   29
   310  1.1026e-02  6.4368e-03  1.4392e-02  5.7025e-03  7.3968e-02  3.4051e-03  0:00:11   28
   311  4.2604e-03  2.5572e-03  5.1984e-03  2.4787e-03  4.9586e-02  1.8475e-03  0:00:14   27
   312  2.9385e-03  1.5584e-03  2.3576e-03  1.5339e-03  3.6401e-02  1.1767e-03  0:00:11   26
   313  2.3421e-03  9.3128e-04  1.2627e-03  9.2503e-04  2.5369e-02  7.5103e-04  0:00:13   25
[...]
   500  3.6929e-03  1.8474e-04  4.8467e-04  1.8480e-04  4.0656e-03  9.3228e-04  0:00:08   23
   501  3.4570e-03  1.5409e-04  4.0934e-04  1.5361e-04  3.5384e-03  7.5864e-04  0:00:06   22
   502  2.8947e-03  1.2301e-04  3.4595e-04  1.2273e-04  3.0685e-03  6.5460e-04  0:00:09   21
   503  2.7144e-03  1.0879e-04  3.0208e-04  1.0848e-04  2.6798e-03  5.4562e-04  0:00:07   20

  iter  continuity  x-velocity  y-velocity  z-velocity           k       omega     time/iter
   504  2.2907e-03  9.0448e-05  2.5955e-04  9.0304e-05  2.3340e-03  4.7263e-04  0:00:09   19
   505  2.0788e-03  7.9922e-05  2.2682e-04  7.9747e-05  2.0431e-03  3.9876e-04  0:00:07   18
   506  1.7781e-03  6.7717e-05  1.9606e-04  6.7645e-05  1.7884e-03  3.4861e-04  0:00:05   17
   507  1.5806e-03  5.9916e-05  1.7093e-04  6.0030e-05  1.5702e-03  2.9646e-04  0:00:07   16
   508  1.3527e-03  5.1060e-05  1.4768e-04  5.1284e-05  1.3718e-03  2.5734e-04  0:00:05   15
   509  1.1883e-03  4.4556e-05  1.2790e-04  4.4748e-05  1.2085e-03  2.2438e-04  0:00:04   14
   510  1.0393e-03  3.9091e-05  1.1113e-04  3.9115e-05  1.0669e-03  1.9435e-04  0:00:06   13
   511  9.0539e-04  3.4120e-05  9.6345e-05  3.4101e-05  9.4278e-04  1.6907e-04  0:00:04   12
!  511 solution is converged
Flow time = 0.3800000000000002s, time step = 34
7 more time steps

Updating solution at time level N...
 done.

Updating mesh at time level N... done.

  iter  continuity  x-velocity  y-velocity  z-velocity           k       omega     time/iter
   511  9.0539e-04  3.4120e-05  9.6345e-05  3.4101e-05  9.4278e-04  1.6907e-04  0:00:10   30
   512  4.1540e-03  4.4822e-04  1.3355e-03  4.4355e-04  1.4899e-02  6.9765e-03  0:00:08   29
   513  1.3745e-02  1.1070e-03  2.8375e-03  1.0794e-03  1.0357e-02  4.0066e-03  0:00:12   28
   514  6.7737e-03  5.1720e-04  1.7133e-03  5.0863e-04  8.7363e-03  3.1664e-03  0:00:09   27
   515  8.3282e-03  7.5180e-04  1.1353e-03  7.4868e-04  6.6517e-03  2.0524e-03  0:00:07   26
   516  5.6396e-03  3.5032e-04  7.4821e-04  3.4960e-04  5.4621e-03  1.5674e-03  0:00:10   25
   517  4.8259e-03  2.3955e-04  5.7556e-04  2.4010e-04  4.6905e-03  1.2685e-03  0:00:08   24
   518  4.7849e-03  2.2829e-04  4.9814e-04  2.2890e-04  3.9599e-03  9.2328e-04  0:00:11   23
   519  3.6473e-03  1.4641e-04  3.9591e-04  1.4699e-04  3.4383e-03  7.5209e-04  0:00:08   22
   520  3.3688e-03  1.2122e-04  3.3613e-04  1.2129e-04  3.0185e-03  6.2297e-04  0:00:06   21
   521  2.8968e-03  1.0052e-04  2.8720e-04  1.0098e-04  2.6256e-03  5.4623e-04  0:00:09   20

  iter  continuity  x-velocity  y-velocity  z-velocity           k       omega     time/iter
   522  2.6887e-03  9.0832e-05  2.4936e-04  9.1190e-05  2.2965e-03  4.6455e-04  0:00:07   19
   523  2.3003e-03  7.6275e-05  2.1436e-04  7.6925e-05  2.0144e-03  4.1256e-04  0:00:05   18
   524  2.0781e-03  6.8090e-05  1.8751e-04  6.8469e-05  1.7700e-03  3.5410e-04  0:00:07   17
   525  1.7795e-03  5.7897e-05  1.6248e-04  5.8259e-05  1.5497e-03  3.0819e-04  0:00:05   16
   526  1.5513e-03  5.0190e-05  1.4114e-04  5.0429e-05  1.3679e-03  2.7058e-04  0:00:07   15
   527  1.3630e-03  4.4363e-05  1.2327e-04  4.4503e-05  1.2119e-03  2.3896e-04  0:00:05   14
   528  1.2071e-03  3.9380e-05  1.0795e-04  3.9462e-05  1.0758e-03  2.0940e-04  0:00:04   13
   529  1.0643e-03  3.4822e-05  9.4612e-05  3.4793e-05  9.5670e-04  1.8266e-04  0:00:05   12
   530  9.3389e-04  3.0615e-05  8.2802e-05  3.0531e-05  8.5167e-04  1.5952e-04  0:00:04   11
!  530 solution is converged
Flow time = 0.3900000000000002s, time step = 35
6 more time steps

Updating solution at time level N...
 done.

Updating mesh at time level N... done.

  iter  continuity  x-velocity  y-velocity  z-velocity           k       omega     time/iter
   530  9.3389e-04  3.0615e-05  8.2802e-05  3.0531e-05  8.5167e-04  1.5952e-04  0:00:11   30
   531  4.8293e-03  4.1042e-04  1.1966e-03  4.0803e-04  1.4335e-02  7.3927e-03  0:00:08   29
   532  1.4070e-02  9.6744e-04  2.4860e-03  9.4815e-04  1.0305e-02  4.0794e-03  0:00:12   28
   533  6.9264e-03  4.6053e-04  1.5256e-03  4.5502e-04  8.6479e-03  3.1197e-03  0:00:09   27
   534  8.6860e-03  6.9268e-04  1.0550e-03  6.9270e-04  6.6248e-03  2.0111e-03  0:00:12   26
   535  5.7432e-03  3.1844e-04  7.0038e-04  3.1930e-04  5.6633e-03  1.5798e-03  0:00:09   25
   536  5.8095e-03  2.7501e-04  5.6299e-04  2.7535e-04  4.6908e-03  1.0938e-03  0:00:07   24
   537  4.3526e-03  1.7067e-04  4.3225e-04  1.7185e-04  4.0283e-03  8.7918e-04  0:00:10   23
   538  4.1421e-03  1.3744e-04  3.6183e-04  1.3778e-04  3.5104e-03  7.3298e-04  0:00:08   22
   539  3.6327e-03  1.1379e-04  3.0847e-04  1.1438e-04  3.0508e-03  6.4809e-04  0:00:06   21
   540  3.3945e-03  1.0293e-04  2.6776e-04  1.0371e-04  2.6564e-03  5.5673e-04  0:00:09   20

  iter  continuity  x-velocity  y-velocity  z-velocity           k       omega     time/iter
   541  2.9165e-03  8.5572e-05  2.3115e-04  8.6471e-05  2.3114e-03  4.8151e-04  0:00:06   19
   542  2.5725e-03  7.3319e-05  2.0117e-04  7.3933e-05  2.0185e-03  4.2227e-04  0:00:09   18
   543  2.2857e-03  6.4661e-05  1.7598e-04  6.5008e-05  1.7685e-03  3.7044e-04  0:00:06   17
   544  2.0106e-03  5.6896e-05  1.5396e-04  5.7125e-05  1.5527e-03  3.2573e-04  0:00:05   16
   545  1.7760e-03  5.0423e-05  1.3516e-04  5.0585e-05  1.3675e-03  2.8564e-04  0:00:07   15
   546  1.5631e-03  4.4520e-05  1.1878e-04  4.4576e-05  1.2083e-03  2.4854e-04  0:00:05   14
   547  1.3605e-03  3.8997e-05  1.0401e-04  3.8970e-05  1.0700e-03  2.1661e-04  0:00:04   13
   548  1.1912e-03  3.4335e-05  9.1141e-05  3.4272e-05  9.4996e-04  1.8934e-04  0:00:05   12
   549  1.0425e-03  3.0227e-05  7.9816e-05  3.0184e-05  8.4455e-04  1.6564e-04  0:00:04   11
   550  9.1219e-04  2.6598e-05  6.9842e-05  2.6559e-05  7.5080e-04  1.4476e-04  0:00:05   10
!  550 solution is converged
Flow time = 0.4000000000000002s, time step = 36
5 more time steps

Updating solution at time level N...
 done.

Updating mesh at time level N... done.

  iter  continuity  x-velocity  y-velocity  z-velocity           k       omega     time/iter
   550  9.1219e-04  2.6598e-05  6.9842e-05  2.6559e-05  7.5080e-04  1.4476e-04  0:00:14   30
   551  4.1957e-03  3.6851e-04  1.0548e-03  3.6494e-04  1.3997e-02  6.4021e-03  0:00:17   29
   552  1.4128e-02  8.8474e-04  2.2440e-03  8.6714e-04  1.0308e-02  3.4382e-03  0:00:13   28
   553  7.0648e-03  5.0593e-04  1.1417e-03  5.0008e-04  8.0019e-03  2.2134e-03  0:00:15   27
   554  5.8711e-03  3.5950e-04  7.7799e-04  3.5711e-04  6.5297e-03  1.6982e-03  0:00:12   26
   555  5.9873e-03  2.9904e-04  5.8459e-04  2.9806e-04  5.4791e-03  1.4353e-03  0:00:09   25
   556  5.5497e-03  2.2044e-04  4.9355e-04  2.2093e-04  4.6921e-03  1.2181e-03  0:00:12   24
   557  4.9188e-03  1.6670e-04  4.2125e-04  1.6739e-04  4.0677e-03  1.0618e-03  0:00:09   23
   558  4.7864e-03  1.5012e-04  3.5898e-04  1.5089e-04  3.5327e-03  8.9851e-04  0:00:07   22
   559  4.1659e-03  1.2630e-04  3.0718e-04  1.2746e-04  3.0431e-03  7.2864e-04  0:00:09   21
   560  3.5738e-03  1.0579e-04  2.5480e-04  1.0626e-04  2.6378e-03  6.3481e-04  0:00:07   20

  iter  continuity  x-velocity  y-velocity  z-velocity           k       omega     time/iter
   561  3.3697e-03  9.7762e-05  2.2729e-04  9.7866e-05  2.2907e-03  5.2474e-04  0:00:09   19
   562  2.7989e-03  7.8808e-05  1.9876e-04  7.8725e-05  1.9983e-03  4.4210e-04  0:00:07   18
   563  2.4268e-03  6.6623e-05  1.7360e-04  6.6334e-05  1.7455e-03  3.7901e-04  0:00:05   17
   564  2.1321e-03  5.8406e-05  1.5049e-04  5.8129e-05  1.5303e-03  3.2669e-04  0:00:07   16
   565  1.8890e-03  5.2747e-05  1.2893e-04  5.2501e-05  1.3427e-03  2.8646e-04  0:00:05   15
   566  1.6838e-03  4.7799e-05  1.1092e-04  4.7558e-05  1.1847e-03  2.5020e-04  0:00:04   14
   567  1.4492e-03  4.1066e-05  9.6273e-05  4.0808e-05  1.0466e-03  2.2001e-04  0:00:06   13
   568  1.2563e-03  3.5503e-05  8.4031e-05  3.5253e-05  9.2714e-04  1.9454e-04  0:00:04   12
   569  1.1020e-03  3.1261e-05  7.3340e-05  3.1117e-05  8.2253e-04  1.7276e-04  0:00:03   11
   570  9.7455e-04  2.7806e-05  6.4358e-05  2.7755e-05  7.3222e-04  1.5298e-04  0:00:04   10
!  570 solution is converged
Flow time = 0.4100000000000002s, time step = 37
4 more time steps

Updating solution at time level N...
 done.

Updating mesh at time level N... done.

  iter  continuity  x-velocity  y-velocity  z-velocity           k       omega     time/iter
   570  9.7455e-04  2.7806e-05  6.4358e-05  2.7755e-05  7.3222e-04  1.5298e-04  0:00:13   30
   571  4.0456e-03  3.3626e-04  9.0770e-04  3.3120e-04  1.3466e-02  6.0662e-03  0:00:10   29
   572  1.3561e-02  7.7089e-04  1.9213e-03  7.5616e-04  1.0159e-02  3.3228e-03  0:00:13   28
   573  7.0468e-03  4.2193e-04  1.0507e-03  4.1775e-04  8.1542e-03  2.2748e-03  0:00:10   27
   574  6.9143e-03  4.2083e-04  7.2273e-04  4.1773e-04  6.5760e-03  1.6680e-03  0:00:13   26
   575  5.9932e-03  2.7029e-04  5.3968e-04  2.7102e-04  5.3620e-03  1.3342e-03  0:00:10   25
   576  5.2732e-03  1.8965e-04  4.2849e-04  1.8909e-04  4.5009e-03  1.1180e-03  0:00:08   24
   577  5.0312e-03  1.5992e-04  3.5432e-04  1.5957e-04  3.8178e-03  9.4846e-04  0:00:10   23
   578  4.6851e-03  1.4105e-04  2.9779e-04  1.4070e-04  3.2665e-03  8.0344e-04  0:00:08   22
   579  4.2104e-03  1.2157e-04  2.5678e-04  1.2117e-04  2.8161e-03  6.7801e-04  0:00:06   21
   580  3.7181e-03  1.0345e-04  2.2469e-04  1.0289e-04  2.4413e-03  5.7403e-04  0:00:09   20

  iter  continuity  x-velocity  y-velocity  z-velocity           k       omega     time/iter
   581  3.2624e-03  8.8509e-05  1.9695e-04  8.7976e-05  2.1259e-03  4.9081e-04  0:00:07   19
   582  2.8629e-03  7.6898e-05  1.7254e-04  7.6298e-05  1.8565e-03  4.2544e-04  0:00:09   18
   583  2.5177e-03  6.7704e-05  1.5029e-04  6.7206e-05  1.6275e-03  3.7235e-04  0:00:06   17
   584  2.2310e-03  6.0641e-05  1.3005e-04  6.0271e-05  1.4298e-03  3.2796e-04  0:00:05   16
   585  1.9770e-03  5.4533e-05  1.1211e-04  5.4176e-05  1.2622e-03  2.9041e-04  0:00:07   15
   586  1.7293e-03  4.7932e-05  9.7285e-05  4.7634e-05  1.1176e-03  2.5876e-04  0:00:05   14
   587  1.5149e-03  4.2094e-05  8.4797e-05  4.1838e-05  9.9104e-04  2.3065e-04  0:00:04   13
   588  1.3312e-03  3.7126e-05  7.4003e-05  3.6898e-05  8.8159e-04  2.0632e-04  0:00:05   12
   589  1.1806e-03  3.3022e-05  6.4743e-05  3.2828e-05  7.8611e-04  1.8422e-04  0:00:04   11
   590  1.0459e-03  2.9352e-05  5.6762e-05  2.9173e-05  7.0233e-04  1.6472e-04  0:00:03   10
   591  9.2856e-04  2.6138e-05  4.9888e-05  2.5966e-05  6.2836e-04  1.4706e-04  0:00:04    9
!  591 solution is converged
Flow time = 0.4200000000000002s, time step = 38
3 more time steps

Updating solution at time level N...
 done.

Updating mesh at time level N... 
>> Dividing domain into 4 partitions using Metis.
   Time = 0.086 seconds.
   Done.

>> 4 Stored Partitions:
   ----------------------------------------------------------------------
   Collective Partition Statistics:        Minimum   Maximum   Total     
   ----------------------------------------------------------------------
   Cell count                              25807     25862     103293    
   Mean cell count deviation               -0.1%     0.2%      
   Partition boundary cell count           904       1630      5089      
   Partition boundary cell count ratio     3.5%      6.3%      4.9%      

   Face count                              53086     53932     211464    
   Mean face count deviation               -0.9%     0.7%      
   Partition boundary face count           966       1777      2797      
   Partition boundary face count ratio     1.8%      3.3%      1.3%      

   Cell weights                            3e+05     3e+05     1e+06     
   Mean cell weight deviation              -0.1%     0.2%      

   Partition neighbor count                3         3         
   ----------------------------------------------------------------------
   Partition Method                        Metis                                
   Stored Partition Count                  4                                    
Done.

   Smoothing partition boundaries...done.

  iter  continuity  x-velocity  y-velocity  z-velocity           k       omega     time/iter
   591  9.2856e-04  2.6138e-05  4.9888e-05  2.5966e-05  6.2836e-04  1.4706e-04  0:00:13   30
   592  3.9451e-03  3.1024e-04  7.5176e-04  3.0575e-04  1.2838e-02  5.3953e-03  0:00:16   29
   593  1.2268e-02  6.4966e-04  1.5514e-03  6.3949e-04  9.8552e-03  3.1130e-03  0:00:12   28
   594  6.8297e-03  3.4872e-04  9.7027e-04  3.4458e-04  7.7922e-03  2.0791e-03  0:00:15   27
   595  6.4129e-03  3.2794e-04  6.2173e-04  3.2654e-04  6.3459e-03  1.6236e-03  0:00:11   26
   596  6.3285e-03  2.8717e-04  4.6617e-04  2.8681e-04  5.2518e-03  1.4584e-03  0:00:09   25
   597  6.0190e-03  2.3233e-04  4.2495e-04  2.3204e-04  4.3994e-03  1.2743e-03  0:00:11   24
   598  5.2864e-03  1.7554e-04  3.6569e-04  1.7578e-04  3.7093e-03  1.1112e-03  0:00:09   23
   599  4.8154e-03  1.5040e-04  3.0517e-04  1.5010e-04  3.1654e-03  9.5494e-04  0:00:11   22
   600  4.5331e-03  1.4447e-04  2.3842e-04  1.4429e-04  2.7184e-03  8.1235e-04  0:00:08   21
   601  4.0133e-03  1.2497e-04  2.0297e-04  1.2524e-04  2.3451e-03  6.7022e-04  0:00:06   20

  iter  continuity  x-velocity  y-velocity  z-velocity           k       omega     time/iter
   602  3.4118e-03  1.0106e-04  1.7385e-04  1.0041e-04  2.0350e-03  5.7153e-04  0:00:09   19
   603  3.0023e-03  8.5100e-05  1.5206e-04  8.4444e-05  1.7808e-03  4.9477e-04  0:00:07   18
   604  2.6371e-03  7.3298e-05  1.3317e-04  7.2853e-05  1.5652e-03  4.2991e-04  0:00:05   17
   605  2.3492e-03  6.5213e-05  1.1304e-04  6.4917e-05  1.3806e-03  3.7656e-04  0:00:07   16
   606  2.1176e-03  5.9340e-05  9.5296e-05  5.9117e-05  1.2255e-03  3.3455e-04  0:00:05   15
   607  1.8670e-03  5.1821e-05  8.2562e-05  5.1606e-05  1.0851e-03  2.9456e-04  0:00:04   14
   608  1.6170e-03  4.4463e-05  7.1566e-05  4.4179e-05  9.6431e-04  2.6254e-04  0:00:05   13
   609  1.4398e-03  3.8993e-05  6.2668e-05  3.8700e-05  8.5785e-04  2.3453e-04  0:00:04   12
   610  1.2806e-03  3.4399e-05  5.5022e-05  3.4145e-05  7.6472e-04  2.0964e-04  0:00:03   11
   611  1.1417e-03  3.0481e-05  4.8500e-05  3.0248e-05  6.8292e-04  1.8755e-04  0:00:04   10
   612  1.0178e-03  2.6997e-05  4.2793e-05  2.6789e-05  6.1050e-04  1.6748e-04  0:00:03    9

  iter  continuity  x-velocity  y-velocity  z-velocity           k       omega     time/iter
   613  9.0632e-04  2.3913e-05  3.7748e-05  2.3716e-05  5.4575e-04  1.4945e-04  0:00:02    8
!  613 solution is converged
Flow time = 0.4300000000000002s, time step = 39
2 more time steps

Updating solution at time level N...
 done.

Updating mesh at time level N... done.

  iter  continuity  x-velocity  y-velocity  z-velocity           k       omega     time/iter
   613  9.0632e-04  2.3913e-05  3.7748e-05  2.3716e-05  5.4575e-04  1.4945e-04  0:00:08   30
   614  3.7676e-03  2.7854e-04  5.8953e-04  2.7545e-04  1.2117e-02  5.0910e-03  0:00:12   29
   615  1.1056e-02  5.7117e-04  1.2731e-03  5.6514e-04  9.4851e-03  2.8630e-03  0:00:09   28
   616  6.8379e-03  3.2461e-04  7.8114e-04  3.2218e-04  7.5619e-03  1.9471e-03  0:00:07   27
   617  6.4540e-03  3.0167e-04  4.9841e-04  3.0122e-04  6.1942e-03  1.5319e-03  0:00:11   26
   618  6.2418e-03  2.6111e-04  3.7907e-04  2.6139e-04  5.1513e-03  1.3834e-03  0:00:08   25
   619  5.9301e-03  2.1026e-04  3.4292e-04  2.1041e-04  4.3339e-03  1.2045e-03  0:00:06   24
   620  5.1710e-03  1.6135e-04  2.9088e-04  1.6166e-04  3.6824e-03  1.0524e-03  0:00:09   23
   621  4.7662e-03  1.4012e-04  2.3911e-04  1.4008e-04  3.1531e-03  9.0475e-04  0:00:07   22
   622  4.4326e-03  1.3147e-04  1.8826e-04  1.3150e-04  2.7029e-03  7.6618e-04  0:00:06   21
   623  3.9001e-03  1.1043e-04  1.6001e-04  1.1047e-04  2.3349e-03  6.5118e-04  0:00:08   20

  iter  continuity  x-velocity  y-velocity  z-velocity           k       omega     time/iter
   624  3.3831e-03  9.0437e-05  1.3909e-04  9.0140e-05  2.0303e-03  5.5911e-04  0:00:06   19
   625  2.9816e-03  7.6694e-05  1.2202e-04  7.6248e-05  1.7729e-03  4.8581e-04  0:00:05   18
   626  2.6401e-03  6.6508e-05  1.0711e-04  6.6021e-05  1.5546e-03  4.2506e-04  0:00:07   17
   627  2.3787e-03  5.9431e-05  9.1743e-05  5.9020e-05  1.3653e-03  3.7436e-04  0:00:05   16
   628  2.1318e-03  5.3127e-05  7.8379e-05  5.2815e-05  1.2033e-03  3.2917e-04  0:00:04   15
   629  1.8594e-03  4.5752e-05  6.7964e-05  4.5530e-05  1.0640e-03  2.9206e-04  0:00:06   14
   630  1.6399e-03  3.9650e-05  5.9648e-05  3.9483e-05  9.4337e-04  2.6057e-04  0:00:04   13
   631  1.4534e-03  3.4726e-05  5.2576e-05  3.4629e-05  8.3760e-04  2.3300e-04  0:00:03   12
   632  1.2950e-03  3.0560e-05  4.6566e-05  3.0511e-05  7.4475e-04  2.0822e-04  0:00:05   11
   633  1.1540e-03  2.6951e-05  4.1326e-05  2.6926e-05  6.6328e-04  1.8587e-04  0:00:03   10
   634  1.0300e-03  2.3809e-05  3.6738e-05  2.3775e-05  5.9130e-04  1.6566e-04  0:00:02    9

  iter  continuity  x-velocity  y-velocity  z-velocity           k       omega     time/iter
   635  9.1891e-04  2.1060e-05  3.2639e-05  2.0983e-05  5.2751e-04  1.4738e-04  0:00:03    8
!  635 solution is converged
Flow time = 0.4400000000000002s, time step = 40
1 more time step

Updating solution at time level N...
 done.

Updating mesh at time level N... done.

  iter  continuity  x-velocity  y-velocity  z-velocity           k       omega     time/iter
   635  9.1891e-04  2.1060e-05  3.2639e-05  2.0983e-05  5.2751e-04  1.4738e-04  0:00:12   30
   636  6.2051e-03  2.4828e-04  5.1697e-04  2.4997e-04  1.1579e-02  7.2404e-03  0:00:15   29
   637  1.1028e-02  4.9502e-04  1.0423e-03  4.9347e-04  9.1903e-03  3.2731e-03  0:00:12   28
   638  7.2117e-03  3.1024e-04  5.7079e-04  3.0915e-04  7.3562e-03  2.0406e-03  0:00:09   27
   639  6.5617e-03  2.6550e-04  3.8139e-04  2.6607e-04  6.0620e-03  1.4375e-03  0:00:12   26
   640  5.6393e-03  1.8672e-04  2.8105e-04  1.8785e-04  5.0631e-03  1.1409e-03  0:00:09   25
   641  5.2418e-03  1.4656e-04  2.2395e-04  1.4703e-04  4.2691e-03  9.4640e-04  0:00:07   24
   642  4.7589e-03  1.2083e-04  1.8658e-04  1.2123e-04  3.6366e-03  8.1070e-04  0:00:10   23
   643  4.3424e-03  1.0348e-04  1.5913e-04  1.0371e-04  3.1125e-03  7.0435e-04  0:00:08   22
   644  3.9250e-03  8.9473e-05  1.3742e-04  8.9758e-05  2.6824e-03  6.1621e-04  0:00:06   21
   645  3.5303e-03  7.7898e-05  1.1999e-04  7.8193e-05  2.3200e-03  5.3921e-04  0:00:09   20

  iter  continuity  x-velocity  y-velocity  z-velocity           k       omega     time/iter
   646  3.1585e-03  6.7910e-05  1.0534e-04  6.8195e-05  2.0184e-03  4.7230e-04  0:00:06   19
   647  2.8146e-03  5.9259e-05  9.3022e-05  5.9485e-05  1.7587e-03  4.1438e-04  0:00:05   18
   648  2.5004e-03  5.1663e-05  8.2299e-05  5.1859e-05  1.5391e-03  3.6407e-04  0:00:07   17
   649  2.2156e-03  4.5040e-05  7.2749e-05  4.5217e-05  1.3473e-03  3.2038e-04  0:00:05   16
   650  1.9635e-03  3.9387e-05  6.4297e-05  3.9503e-05  1.1832e-03  2.8275e-04  0:00:04   15
   651  1.7424e-03  3.4536e-05  5.6802e-05  3.4589e-05  1.0386e-03  2.5003e-04  0:00:06   14
   652  1.5524e-03  3.0422e-05  5.0031e-05  3.0406e-05  9.1465e-04  2.2198e-04  0:00:04   13
   653  1.3857e-03  2.6899e-05  4.3975e-05  2.6841e-05  8.0517e-04  1.9597e-04  0:00:03   12
   654  1.2232e-03  2.3511e-05  3.8611e-05  2.3390e-05  7.1072e-04  1.7382e-04  0:00:05   11
   655  1.0777e-03  2.0515e-05  3.3953e-05  2.0351e-05  6.2732e-04  1.5424e-04  0:00:03   10
   656  9.5135e-04  1.7942e-05  2.9920e-05  1.7757e-05  5.5499e-04  1.3694e-04  0:00:02    9
!  656 solution is converged
Flow time = 0.4500000000000002s, time step = 41
Writing "| gzip -2cf > SolutionMonitor.gz"...
Writing temporary file C:\Users\joyoo\AppData\Local\Temp\flntgz-24483 ...
Done.

Writing data to C:\Users\joyoo\OneDrive\Desktop\OSAS-digital-twinning\ansys\ANSYS proj\trial_1\dynamic_mesh_files\dp0\FFF\Fluent\FFF.1.ip ...
	x-coord
	y-coord
	z-coord
	pressure
	x-velocity
	y-velocity
	z-velocity
	k
	omega
Done.

Calculation complete.