
  iter  continuity  x-velocity  y-velocity  z-velocity           k       omega     time/iter
  1790  0.0000e+00  0.0000e+00  0.0000e+00  0.0000e+00  2.1928e-02  1.9917e-05  0:00:07   20
  1791  0.0000e+00  0.0000e+00  0.0000e+00  0.0000e+00  1.5993e+00  3.8130e-03  0:00:13   19
  1792  0.0000e+00  0.0000e+00  0.0000e+00  0.0000e+00  6.6728e-01  3.9737e-03  0:00:10   18
  1793  0.0000e+00  0.0000e+00  0.0000e+00  0.0000e+00  5.8090e-01  2.1104e-03  0:00:08   17